# GHB6 input file, prepared by MF5to6 on 6/30/2020 at 17:28:57.

BEGIN Options
  PRINT_INPUT
  PRINT_FLOWS
  SAVE_FLOWS
END Options

BEGIN Dimensions
  MAXBOUND  33
END Dimensions

BEGIN PERIOD 1
  1  120  16    33.500000        333.33334
  1  120  17    33.500000        333.33334
  1  120  18    33.500000        333.33334
  1  120  19    33.500000        333.33334
  1  120  20    33.500000        333.33334
  1  120  21    33.500000        333.33334
  1  120  22    33.500000        333.33334
  1  120  23    33.500000        333.33334
  1  120  24    33.500000        333.33334
  1  120  25    33.500000        333.33334
  1  120  26    33.500000        333.33334
  1  120  27    33.500000        333.33334
  1  120  28    33.500000        333.33334
  1  120  29    33.500000        333.33334
  1  120  30    33.500000        333.33334
  1  120  31    33.500000        333.33334
  1  120  32    33.500000        333.33334
  1  120  33    33.500000        333.33334
  1  120  34    33.500000        333.33334
  1  120  35    33.500000        333.33334
  1  120  36    33.500000        333.33334
  1  120  37    33.500000        333.33334
  1  120  38    33.500000        333.33334
  1  120  39    33.500000        333.33334
  1  120  40    33.500000        333.33334
  1  120  41    33.500000        333.33334
  1  120  42    33.500000        333.33334
  1  120  43    33.500000        333.33334
  1  120  44    33.500000        333.33334
  1  120  45    33.500000        333.33334
  1  120  46    33.500000        333.33334
  1  120  47    33.500000        333.33334
  1  120  48    33.500000        333.33334
END PERIOD
