# RCH6 input file, prepared by MF5to6 on 6/30/2020 at 17:28:57.

BEGIN Options
  READASARRAYS
END Options

BEGIN PERIOD 1
  RECHARGE
    CONSTANT   0.10000000E-03
END PERIOD

BEGIN PERIOD 2
  RECHARGE
    CONSTANT   0.50278330E-04
END PERIOD

BEGIN PERIOD 3
  RECHARGE
    CONSTANT   0.51683540E-04
END PERIOD

BEGIN PERIOD 4
  RECHARGE
    CONSTANT   0.53137050E-04
END PERIOD

BEGIN PERIOD 5
  RECHARGE
    CONSTANT   0.54560550E-04
END PERIOD

BEGIN PERIOD 6
  RECHARGE
    CONSTANT   0.55953000E-04
END PERIOD

BEGIN PERIOD 7
  RECHARGE
    CONSTANT   0.57469430E-04
END PERIOD

BEGIN PERIOD 8
  RECHARGE
    CONSTANT   0.58937040E-04
END PERIOD

BEGIN PERIOD 9
  RECHARGE
    CONSTANT   0.60426150E-04
END PERIOD

BEGIN PERIOD 10
  RECHARGE
    CONSTANT   0.61846590E-04
END PERIOD

BEGIN PERIOD 11
  RECHARGE
    CONSTANT   0.63434800E-04
END PERIOD

BEGIN PERIOD 12
  RECHARGE
    CONSTANT   0.64930120E-04
END PERIOD

BEGIN PERIOD 13
  RECHARGE
    CONSTANT   0.66492550E-04
END PERIOD

BEGIN PERIOD 14
  RECHARGE
    CONSTANT   0.68031780E-04
END PERIOD

BEGIN PERIOD 15
  RECHARGE
    CONSTANT   0.69586700E-04
END PERIOD

BEGIN PERIOD 16
  RECHARGE
    CONSTANT   0.71088030E-04
END PERIOD

BEGIN PERIOD 17
  RECHARGE
    CONSTANT   0.72673420E-04
END PERIOD

BEGIN PERIOD 18
  RECHARGE
    CONSTANT   0.74326580E-04
END PERIOD

BEGIN PERIOD 19
  RECHARGE
    CONSTANT   0.75840060E-04
END PERIOD

BEGIN PERIOD 20
  RECHARGE
    CONSTANT   0.77383490E-04
END PERIOD

BEGIN PERIOD 21
  RECHARGE
    CONSTANT   0.79080430E-04
END PERIOD

BEGIN PERIOD 22
  RECHARGE
    CONSTANT   0.80725210E-04
END PERIOD

BEGIN PERIOD 23
  RECHARGE
    CONSTANT   0.82275760E-04
END PERIOD

BEGIN PERIOD 24
  RECHARGE
    CONSTANT   0.83774870E-04
END PERIOD

BEGIN PERIOD 25
  RECHARGE
    CONSTANT   0.85522500E-04
END PERIOD

BEGIN PERIOD 26
  RECHARGE
    CONSTANT   0.87097640E-04
END PERIOD

BEGIN PERIOD 27
  RECHARGE
    CONSTANT   0.88743500E-04
END PERIOD

BEGIN PERIOD 28
  RECHARGE
    CONSTANT   0.90332110E-04
END PERIOD

BEGIN PERIOD 29
  RECHARGE
    CONSTANT   0.91916810E-04
END PERIOD

BEGIN PERIOD 30
  RECHARGE
    CONSTANT   0.93655210E-04
END PERIOD

BEGIN PERIOD 31
  RECHARGE
    CONSTANT   0.95279390E-04
END PERIOD

BEGIN PERIOD 32
  RECHARGE
    CONSTANT   0.96977960E-04
END PERIOD

BEGIN PERIOD 33
  RECHARGE
    CONSTANT   0.98451280E-04
END PERIOD

BEGIN PERIOD 34
  RECHARGE
    CONSTANT   0.10024240E-03
END PERIOD

BEGIN PERIOD 35
  RECHARGE
    CONSTANT   0.10183500E-03
END PERIOD

BEGIN PERIOD 36
  RECHARGE
    CONSTANT   0.10356480E-03
END PERIOD

BEGIN PERIOD 37
  RECHARGE
    CONSTANT   0.10499640E-03
END PERIOD

BEGIN PERIOD 38
  RECHARGE
    CONSTANT   0.10675820E-03
END PERIOD

BEGIN PERIOD 39
  RECHARGE
    CONSTANT   0.10829290E-03
END PERIOD

BEGIN PERIOD 40
  RECHARGE
    CONSTANT   0.11003620E-03
END PERIOD

BEGIN PERIOD 41
  RECHARGE
    CONSTANT   0.11160120E-03
END PERIOD

BEGIN PERIOD 42
  RECHARGE
    CONSTANT   0.11325350E-03
END PERIOD

BEGIN PERIOD 43
  RECHARGE
    CONSTANT   0.11487040E-03
END PERIOD

BEGIN PERIOD 44
  RECHARGE
    CONSTANT   0.11653390E-03
END PERIOD

BEGIN PERIOD 45
  RECHARGE
    CONSTANT   0.11814310E-03
END PERIOD

BEGIN PERIOD 46
  RECHARGE
    CONSTANT   0.11963290E-03
END PERIOD

BEGIN PERIOD 47
  RECHARGE
    CONSTANT   0.12132960E-03
END PERIOD

BEGIN PERIOD 48
  RECHARGE
    CONSTANT   0.12282320E-03
END PERIOD

BEGIN PERIOD 49
  RECHARGE
    CONSTANT   0.12447330E-03
END PERIOD

BEGIN PERIOD 50
  RECHARGE
    CONSTANT   0.12606580E-03
END PERIOD

BEGIN PERIOD 51
  RECHARGE
    CONSTANT   0.12757000E-03
END PERIOD

BEGIN PERIOD 52
  RECHARGE
    CONSTANT   0.12922080E-03
END PERIOD

BEGIN PERIOD 53
  RECHARGE
    CONSTANT   0.13076710E-03
END PERIOD

BEGIN PERIOD 54
  RECHARGE
    CONSTANT   0.13222470E-03
END PERIOD

BEGIN PERIOD 55
  RECHARGE
    CONSTANT   0.13391760E-03
END PERIOD

BEGIN PERIOD 56
  RECHARGE
    CONSTANT   0.13534440E-03
END PERIOD

BEGIN PERIOD 57
  RECHARGE
    CONSTANT   0.13701740E-03
END PERIOD

BEGIN PERIOD 58
  RECHARGE
    CONSTANT   0.13853530E-03
END PERIOD

BEGIN PERIOD 59
  RECHARGE
    CONSTANT   0.13991140E-03
END PERIOD

BEGIN PERIOD 60
  RECHARGE
    CONSTANT   0.14135040E-03
END PERIOD

BEGIN PERIOD 61
  RECHARGE
    CONSTANT   0.14290160E-03
END PERIOD

BEGIN PERIOD 62
  RECHARGE
    CONSTANT   0.14425330E-03
END PERIOD

BEGIN PERIOD 63
  RECHARGE
    CONSTANT   0.14579190E-03
END PERIOD

BEGIN PERIOD 64
  RECHARGE
    CONSTANT   0.14723890E-03
END PERIOD

BEGIN PERIOD 65
  RECHARGE
    CONSTANT   0.14865690E-03
END PERIOD

BEGIN PERIOD 66
  RECHARGE
    CONSTANT   0.15011440E-03
END PERIOD

BEGIN PERIOD 67
  RECHARGE
    CONSTANT   0.15140300E-03
END PERIOD

BEGIN PERIOD 68
  RECHARGE
    CONSTANT   0.15281350E-03
END PERIOD

BEGIN PERIOD 69
  RECHARGE
    CONSTANT   0.15425900E-03
END PERIOD

BEGIN PERIOD 70
  RECHARGE
    CONSTANT   0.15546900E-03
END PERIOD

BEGIN PERIOD 71
  RECHARGE
    CONSTANT   0.15673900E-03
END PERIOD

BEGIN PERIOD 72
  RECHARGE
    CONSTANT   0.15810140E-03
END PERIOD

BEGIN PERIOD 73
  RECHARGE
    CONSTANT   0.15932040E-03
END PERIOD

BEGIN PERIOD 74
  RECHARGE
    CONSTANT   0.16073520E-03
END PERIOD

BEGIN PERIOD 75
  RECHARGE
    CONSTANT   0.16197860E-03
END PERIOD

BEGIN PERIOD 76
  RECHARGE
    CONSTANT   0.16332880E-03
END PERIOD

BEGIN PERIOD 77
  RECHARGE
    CONSTANT   0.16438540E-03
END PERIOD

BEGIN PERIOD 78
  RECHARGE
    CONSTANT   0.16564540E-03
END PERIOD

BEGIN PERIOD 79
  RECHARGE
    CONSTANT   0.16678280E-03
END PERIOD

BEGIN PERIOD 80
  RECHARGE
    CONSTANT   0.16804060E-03
END PERIOD

BEGIN PERIOD 81
  RECHARGE
    CONSTANT   0.16905820E-03
END PERIOD

BEGIN PERIOD 82
  RECHARGE
    CONSTANT   0.17033750E-03
END PERIOD

BEGIN PERIOD 83
  RECHARGE
    CONSTANT   0.17122570E-03
END PERIOD

BEGIN PERIOD 84
  RECHARGE
    CONSTANT   0.17224710E-03
END PERIOD

BEGIN PERIOD 85
  RECHARGE
    CONSTANT   0.17331740E-03
END PERIOD

BEGIN PERIOD 86
  RECHARGE
    CONSTANT   0.17441060E-03
END PERIOD

BEGIN PERIOD 87
  RECHARGE
    CONSTANT   0.17550390E-03
END PERIOD

BEGIN PERIOD 88
  RECHARGE
    CONSTANT   0.17644180E-03
END PERIOD

BEGIN PERIOD 89
  RECHARGE
    CONSTANT   0.17740060E-03
END PERIOD

BEGIN PERIOD 90
  RECHARGE
    CONSTANT   0.17839720E-03
END PERIOD

BEGIN PERIOD 91
  RECHARGE
    CONSTANT   0.17918760E-03
END PERIOD

BEGIN PERIOD 92
  RECHARGE
    CONSTANT   0.18021390E-03
END PERIOD

BEGIN PERIOD 93
  RECHARGE
    CONSTANT   0.18027960E-03
END PERIOD

BEGIN PERIOD 94
  RECHARGE
    CONSTANT   0.18122440E-03
END PERIOD

BEGIN PERIOD 95
  RECHARGE
    CONSTANT   0.18197820E-03
END PERIOD

BEGIN PERIOD 96
  RECHARGE
    CONSTANT   0.18288090E-03
END PERIOD

BEGIN PERIOD 97
  RECHARGE
    CONSTANT   0.18347420E-03
END PERIOD

BEGIN PERIOD 98
  RECHARGE
    CONSTANT   0.18424400E-03
END PERIOD

BEGIN PERIOD 99
  RECHARGE
    CONSTANT   0.18507150E-03
END PERIOD

BEGIN PERIOD 100
  RECHARGE
    CONSTANT   0.18566260E-03
END PERIOD

BEGIN PERIOD 101
  RECHARGE
    CONSTANT   0.18646470E-03
END PERIOD

BEGIN PERIOD 102
  RECHARGE
    CONSTANT   0.18731290E-03
END PERIOD

BEGIN PERIOD 103
  RECHARGE
    CONSTANT   0.18795670E-03
END PERIOD

BEGIN PERIOD 104
  RECHARGE
    CONSTANT   0.18841590E-03
END PERIOD

BEGIN PERIOD 105
  RECHARGE
    CONSTANT   0.18910910E-03
END PERIOD

BEGIN PERIOD 106
  RECHARGE
    CONSTANT   0.18969650E-03
END PERIOD

BEGIN PERIOD 107
  RECHARGE
    CONSTANT   0.18997670E-03
END PERIOD

BEGIN PERIOD 108
  RECHARGE
    CONSTANT   0.19066150E-03
END PERIOD

BEGIN PERIOD 109
  RECHARGE
    CONSTANT   0.19127490E-03
END PERIOD

BEGIN PERIOD 110
  RECHARGE
    CONSTANT   0.19158960E-03
END PERIOD

BEGIN PERIOD 111
  RECHARGE
    CONSTANT   0.19213830E-03
END PERIOD

BEGIN PERIOD 112
  RECHARGE
    CONSTANT   0.19247810E-03
END PERIOD

BEGIN PERIOD 113
  RECHARGE
    CONSTANT   0.19278080E-03
END PERIOD

BEGIN PERIOD 114
  RECHARGE
    CONSTANT   0.19326920E-03
END PERIOD

BEGIN PERIOD 115
  RECHARGE
    CONSTANT   0.19330000E-03
END PERIOD

BEGIN PERIOD 116
  RECHARGE
    CONSTANT   0.19378070E-03
END PERIOD

BEGIN PERIOD 117
  RECHARGE
    CONSTANT   0.19409030E-03
END PERIOD

BEGIN PERIOD 118
  RECHARGE
    CONSTANT   0.19441940E-03
END PERIOD

BEGIN PERIOD 119
  RECHARGE
    CONSTANT   0.19461170E-03
END PERIOD

BEGIN PERIOD 120
  RECHARGE
    CONSTANT   0.19469070E-03
END PERIOD

BEGIN PERIOD 121
  RECHARGE
    CONSTANT   0.19481240E-03
END PERIOD

BEGIN PERIOD 122
  RECHARGE
    CONSTANT   0.19507650E-03
END PERIOD

BEGIN PERIOD 123
  RECHARGE
    CONSTANT   0.19517780E-03
END PERIOD

BEGIN PERIOD 124
  RECHARGE
    CONSTANT   0.19530840E-03
END PERIOD

BEGIN PERIOD 125
  RECHARGE
    CONSTANT   0.19523210E-03
END PERIOD

BEGIN PERIOD 126
  RECHARGE
    CONSTANT   0.19531590E-03
END PERIOD

BEGIN PERIOD 127
  RECHARGE
    CONSTANT   0.19525740E-03
END PERIOD

BEGIN PERIOD 128
  RECHARGE
    CONSTANT   0.19521850E-03
END PERIOD

BEGIN PERIOD 129
  RECHARGE
    CONSTANT   0.19540350E-03
END PERIOD

BEGIN PERIOD 130
  RECHARGE
    CONSTANT   0.19496220E-03
END PERIOD

BEGIN PERIOD 131
  RECHARGE
    CONSTANT   0.19486920E-03
END PERIOD

BEGIN PERIOD 132
  RECHARGE
    CONSTANT   0.19463400E-03
END PERIOD

BEGIN PERIOD 133
  RECHARGE
    CONSTANT   0.19469000E-03
END PERIOD

BEGIN PERIOD 134
  RECHARGE
    CONSTANT   0.19443060E-03
END PERIOD

BEGIN PERIOD 135
  RECHARGE
    CONSTANT   0.19419290E-03
END PERIOD

BEGIN PERIOD 136
  RECHARGE
    CONSTANT   0.19402570E-03
END PERIOD

BEGIN PERIOD 137
  RECHARGE
    CONSTANT   0.19364590E-03
END PERIOD

BEGIN PERIOD 138
  RECHARGE
    CONSTANT   0.19316330E-03
END PERIOD

BEGIN PERIOD 139
  RECHARGE
    CONSTANT   0.19288480E-03
END PERIOD

BEGIN PERIOD 140
  RECHARGE
    CONSTANT   0.19269560E-03
END PERIOD

BEGIN PERIOD 141
  RECHARGE
    CONSTANT   0.19225630E-03
END PERIOD

BEGIN PERIOD 142
  RECHARGE
    CONSTANT   0.19171570E-03
END PERIOD

BEGIN PERIOD 143
  RECHARGE
    CONSTANT   0.19133720E-03
END PERIOD

BEGIN PERIOD 144
  RECHARGE
    CONSTANT   0.19090700E-03
END PERIOD

BEGIN PERIOD 145
  RECHARGE
    CONSTANT   0.19016600E-03
END PERIOD

BEGIN PERIOD 146
  RECHARGE
    CONSTANT   0.18965040E-03
END PERIOD

BEGIN PERIOD 147
  RECHARGE
    CONSTANT   0.18919800E-03
END PERIOD

BEGIN PERIOD 148
  RECHARGE
    CONSTANT   0.18856750E-03
END PERIOD

BEGIN PERIOD 149
  RECHARGE
    CONSTANT   0.18803660E-03
END PERIOD

BEGIN PERIOD 150
  RECHARGE
    CONSTANT   0.18739590E-03
END PERIOD

BEGIN PERIOD 151
  RECHARGE
    CONSTANT   0.18664820E-03
END PERIOD

BEGIN PERIOD 152
  RECHARGE
    CONSTANT   0.18605900E-03
END PERIOD

BEGIN PERIOD 153
  RECHARGE
    CONSTANT   0.18510710E-03
END PERIOD

BEGIN PERIOD 154
  RECHARGE
    CONSTANT   0.18457410E-03
END PERIOD

BEGIN PERIOD 155
  RECHARGE
    CONSTANT   0.18381570E-03
END PERIOD

BEGIN PERIOD 156
  RECHARGE
    CONSTANT   0.18288130E-03
END PERIOD

BEGIN PERIOD 157
  RECHARGE
    CONSTANT   0.18210740E-03
END PERIOD

BEGIN PERIOD 158
  RECHARGE
    CONSTANT   0.18139030E-03
END PERIOD

BEGIN PERIOD 159
  RECHARGE
    CONSTANT   0.18037440E-03
END PERIOD

BEGIN PERIOD 160
  RECHARGE
    CONSTANT   0.17959590E-03
END PERIOD

BEGIN PERIOD 161
  RECHARGE
    CONSTANT   0.17858550E-03
END PERIOD

BEGIN PERIOD 162
  RECHARGE
    CONSTANT   0.17768240E-03
END PERIOD

BEGIN PERIOD 163
  RECHARGE
    CONSTANT   0.17649070E-03
END PERIOD

BEGIN PERIOD 164
  RECHARGE
    CONSTANT   0.17558790E-03
END PERIOD

BEGIN PERIOD 165
  RECHARGE
    CONSTANT   0.17468170E-03
END PERIOD

BEGIN PERIOD 166
  RECHARGE
    CONSTANT   0.17378860E-03
END PERIOD

BEGIN PERIOD 167
  RECHARGE
    CONSTANT   0.17256370E-03
END PERIOD

BEGIN PERIOD 168
  RECHARGE
    CONSTANT   0.17168020E-03
END PERIOD

BEGIN PERIOD 169
  RECHARGE
    CONSTANT   0.17038930E-03
END PERIOD

BEGIN PERIOD 170
  RECHARGE
    CONSTANT   0.16939050E-03
END PERIOD

BEGIN PERIOD 171
  RECHARGE
    CONSTANT   0.16837070E-03
END PERIOD

BEGIN PERIOD 172
  RECHARGE
    CONSTANT   0.16700970E-03
END PERIOD

BEGIN PERIOD 173
  RECHARGE
    CONSTANT   0.16598000E-03
END PERIOD

BEGIN PERIOD 174
  RECHARGE
    CONSTANT   0.16469870E-03
END PERIOD

BEGIN PERIOD 175
  RECHARGE
    CONSTANT   0.16336290E-03
END PERIOD

BEGIN PERIOD 176
  RECHARGE
    CONSTANT   0.16228420E-03
END PERIOD

BEGIN PERIOD 177
  RECHARGE
    CONSTANT   0.16089310E-03
END PERIOD

BEGIN PERIOD 178
  RECHARGE
    CONSTANT   0.15957980E-03
END PERIOD

BEGIN PERIOD 179
  RECHARGE
    CONSTANT   0.15845950E-03
END PERIOD

BEGIN PERIOD 180
  RECHARGE
    CONSTANT   0.15714050E-03
END PERIOD

BEGIN PERIOD 181
  RECHARGE
    CONSTANT   0.15580800E-03
END PERIOD

BEGIN PERIOD 182
  RECHARGE
    CONSTANT   0.15440840E-03
END PERIOD

BEGIN PERIOD 183
  RECHARGE
    CONSTANT   0.15299380E-03
END PERIOD

BEGIN PERIOD 184
  RECHARGE
    CONSTANT   0.15169320E-03
END PERIOD

BEGIN PERIOD 185
  RECHARGE
    CONSTANT   0.15047440E-03
END PERIOD

BEGIN PERIOD 186
  RECHARGE
    CONSTANT   0.14889000E-03
END PERIOD

BEGIN PERIOD 187
  RECHARGE
    CONSTANT   0.14746260E-03
END PERIOD

BEGIN PERIOD 188
  RECHARGE
    CONSTANT   0.14617530E-03
END PERIOD

BEGIN PERIOD 189
  RECHARGE
    CONSTANT   0.14465560E-03
END PERIOD

BEGIN PERIOD 190
  RECHARGE
    CONSTANT   0.14330210E-03
END PERIOD

BEGIN PERIOD 191
  RECHARGE
    CONSTANT   0.14180500E-03
END PERIOD

BEGIN PERIOD 192
  RECHARGE
    CONSTANT   0.14017480E-03
END PERIOD

BEGIN PERIOD 193
  RECHARGE
    CONSTANT   0.13867620E-03
END PERIOD

BEGIN PERIOD 194
  RECHARGE
    CONSTANT   0.13725640E-03
END PERIOD

BEGIN PERIOD 195
  RECHARGE
    CONSTANT   0.13568840E-03
END PERIOD

BEGIN PERIOD 196
  RECHARGE
    CONSTANT   0.13414550E-03
END PERIOD

BEGIN PERIOD 197
  RECHARGE
    CONSTANT   0.13263200E-03
END PERIOD

BEGIN PERIOD 198
  RECHARGE
    CONSTANT   0.13110710E-03
END PERIOD

BEGIN PERIOD 199
  RECHARGE
    CONSTANT   0.12958600E-03
END PERIOD

BEGIN PERIOD 200
  RECHARGE
    CONSTANT   0.12807890E-03
END PERIOD

BEGIN PERIOD 201
  RECHARGE
    CONSTANT   0.12644810E-03
END PERIOD

BEGIN PERIOD 202
  RECHARGE
    CONSTANT   0.12476330E-03
END PERIOD

BEGIN PERIOD 203
  RECHARGE
    CONSTANT   0.12338400E-03
END PERIOD

BEGIN PERIOD 204
  RECHARGE
    CONSTANT   0.12159110E-03
END PERIOD

BEGIN PERIOD 205
  RECHARGE
    CONSTANT   0.11999870E-03
END PERIOD

BEGIN PERIOD 206
  RECHARGE
    CONSTANT   0.11855130E-03
END PERIOD

BEGIN PERIOD 207
  RECHARGE
    CONSTANT   0.11688400E-03
END PERIOD

BEGIN PERIOD 208
  RECHARGE
    CONSTANT   0.11526480E-03
END PERIOD

BEGIN PERIOD 209
  RECHARGE
    CONSTANT   0.11358350E-03
END PERIOD

BEGIN PERIOD 210
  RECHARGE
    CONSTANT   0.11203910E-03
END PERIOD

BEGIN PERIOD 211
  RECHARGE
    CONSTANT   0.11034200E-03
END PERIOD

BEGIN PERIOD 212
  RECHARGE
    CONSTANT   0.10880950E-03
END PERIOD

BEGIN PERIOD 213
  RECHARGE
    CONSTANT   0.10708050E-03
END PERIOD

BEGIN PERIOD 214
  RECHARGE
    CONSTANT   0.10553900E-03
END PERIOD

BEGIN PERIOD 215
  RECHARGE
    CONSTANT   0.10389540E-03
END PERIOD

BEGIN PERIOD 216
  RECHARGE
    CONSTANT   0.10221630E-03
END PERIOD

BEGIN PERIOD 217
  RECHARGE
    CONSTANT   0.10052050E-03
END PERIOD

BEGIN PERIOD 218
  RECHARGE
    CONSTANT   0.98999140E-04
END PERIOD

BEGIN PERIOD 219
  RECHARGE
    CONSTANT   0.97228360E-04
END PERIOD

BEGIN PERIOD 220
  RECHARGE
    CONSTANT   0.95710900E-04
END PERIOD

BEGIN PERIOD 221
  RECHARGE
    CONSTANT   0.93913880E-04
END PERIOD

BEGIN PERIOD 222
  RECHARGE
    CONSTANT   0.92303240E-04
END PERIOD

BEGIN PERIOD 223
  RECHARGE
    CONSTANT   0.90730900E-04
END PERIOD

BEGIN PERIOD 224
  RECHARGE
    CONSTANT   0.89146190E-04
END PERIOD

BEGIN PERIOD 225
  RECHARGE
    CONSTANT   0.87493220E-04
END PERIOD

BEGIN PERIOD 226
  RECHARGE
    CONSTANT   0.85755590E-04
END PERIOD

BEGIN PERIOD 227
  RECHARGE
    CONSTANT   0.84247760E-04
END PERIOD

BEGIN PERIOD 228
  RECHARGE
    CONSTANT   0.82613270E-04
END PERIOD

BEGIN PERIOD 229
  RECHARGE
    CONSTANT   0.80963120E-04
END PERIOD

BEGIN PERIOD 230
  RECHARGE
    CONSTANT   0.79391150E-04
END PERIOD

BEGIN PERIOD 231
  RECHARGE
    CONSTANT   0.77819550E-04
END PERIOD

BEGIN PERIOD 232
  RECHARGE
    CONSTANT   0.76163330E-04
END PERIOD

BEGIN PERIOD 233
  RECHARGE
    CONSTANT   0.74624950E-04
END PERIOD

BEGIN PERIOD 234
  RECHARGE
    CONSTANT   0.73086000E-04
END PERIOD

BEGIN PERIOD 235
  RECHARGE
    CONSTANT   0.71495650E-04
END PERIOD

BEGIN PERIOD 236
  RECHARGE
    CONSTANT   0.69913030E-04
END PERIOD

BEGIN PERIOD 237
  RECHARGE
    CONSTANT   0.68377040E-04
END PERIOD

BEGIN PERIOD 238
  RECHARGE
    CONSTANT   0.66849480E-04
END PERIOD

BEGIN PERIOD 239
  RECHARGE
    CONSTANT   0.65347510E-04
END PERIOD

BEGIN PERIOD 240
  RECHARGE
    CONSTANT   0.63741360E-04
END PERIOD

BEGIN PERIOD 241
  RECHARGE
    CONSTANT   0.62238430E-04
END PERIOD

BEGIN PERIOD 242
  RECHARGE
    CONSTANT   0.60730460E-04
END PERIOD

BEGIN PERIOD 243
  RECHARGE
    CONSTANT   0.59291980E-04
END PERIOD

BEGIN PERIOD 244
  RECHARGE
    CONSTANT   0.57773450E-04
END PERIOD

BEGIN PERIOD 245
  RECHARGE
    CONSTANT   0.56337920E-04
END PERIOD

BEGIN PERIOD 246
  RECHARGE
    CONSTANT   0.54865080E-04
END PERIOD

BEGIN PERIOD 247
  RECHARGE
    CONSTANT   0.53462970E-04
END PERIOD

BEGIN PERIOD 248
  RECHARGE
    CONSTANT   0.52028320E-04
END PERIOD

BEGIN PERIOD 249
  RECHARGE
    CONSTANT   0.50631460E-04
END PERIOD

BEGIN PERIOD 250
  RECHARGE
    CONSTANT   0.49262190E-04
END PERIOD

BEGIN PERIOD 251
  RECHARGE
    CONSTANT   0.47895330E-04
END PERIOD

BEGIN PERIOD 252
  RECHARGE
    CONSTANT   0.46479660E-04
END PERIOD

BEGIN PERIOD 253
  RECHARGE
    CONSTANT   0.45125730E-04
END PERIOD

BEGIN PERIOD 254
  RECHARGE
    CONSTANT   0.43788200E-04
END PERIOD

BEGIN PERIOD 255
  RECHARGE
    CONSTANT   0.42491640E-04
END PERIOD

BEGIN PERIOD 256
  RECHARGE
    CONSTANT   0.41210850E-04
END PERIOD

BEGIN PERIOD 257
  RECHARGE
    CONSTANT   0.39915650E-04
END PERIOD

BEGIN PERIOD 258
  RECHARGE
    CONSTANT   0.38710110E-04
END PERIOD

BEGIN PERIOD 259
  RECHARGE
    CONSTANT   0.37423050E-04
END PERIOD

BEGIN PERIOD 260
  RECHARGE
    CONSTANT   0.36211340E-04
END PERIOD

BEGIN PERIOD 261
  RECHARGE
    CONSTANT   0.34971740E-04
END PERIOD

BEGIN PERIOD 262
  RECHARGE
    CONSTANT   0.33826840E-04
END PERIOD

BEGIN PERIOD 263
  RECHARGE
    CONSTANT   0.32648630E-04
END PERIOD

BEGIN PERIOD 264
  RECHARGE
    CONSTANT   0.31511670E-04
END PERIOD

BEGIN PERIOD 265
  RECHARGE
    CONSTANT   0.30372700E-04
END PERIOD

BEGIN PERIOD 266
  RECHARGE
    CONSTANT   0.29260330E-04
END PERIOD

BEGIN PERIOD 267
  RECHARGE
    CONSTANT   0.28204940E-04
END PERIOD

BEGIN PERIOD 268
  RECHARGE
    CONSTANT   0.27117570E-04
END PERIOD

BEGIN PERIOD 269
  RECHARGE
    CONSTANT   0.26095430E-04
END PERIOD

BEGIN PERIOD 270
  RECHARGE
    CONSTANT   0.25048420E-04
END PERIOD

BEGIN PERIOD 271
  RECHARGE
    CONSTANT   0.24068830E-04
END PERIOD

BEGIN PERIOD 272
  RECHARGE
    CONSTANT   0.23076540E-04
END PERIOD

BEGIN PERIOD 273
  RECHARGE
    CONSTANT   0.22153520E-04
END PERIOD

BEGIN PERIOD 274
  RECHARGE
    CONSTANT   0.21222250E-04
END PERIOD

BEGIN PERIOD 275
  RECHARGE
    CONSTANT   0.20321040E-04
END PERIOD

BEGIN PERIOD 276
  RECHARGE
    CONSTANT   0.19416570E-04
END PERIOD

BEGIN PERIOD 277
  RECHARGE
    CONSTANT   0.18566480E-04
END PERIOD

BEGIN PERIOD 278
  RECHARGE
    CONSTANT   0.17750070E-04
END PERIOD

BEGIN PERIOD 279
  RECHARGE
    CONSTANT   0.16935960E-04
END PERIOD

BEGIN PERIOD 280
  RECHARGE
    CONSTANT   0.16164290E-04
END PERIOD

BEGIN PERIOD 281
  RECHARGE
    CONSTANT   0.15397110E-04
END PERIOD

BEGIN PERIOD 282
  RECHARGE
    CONSTANT   0.14650500E-04
END PERIOD

BEGIN PERIOD 283
  RECHARGE
    CONSTANT   0.13959430E-04
END PERIOD

BEGIN PERIOD 284
  RECHARGE
    CONSTANT   0.13257910E-04
END PERIOD

BEGIN PERIOD 285
  RECHARGE
    CONSTANT   0.12626060E-04
END PERIOD

BEGIN PERIOD 286
  RECHARGE
    CONSTANT   0.11990550E-04
END PERIOD

BEGIN PERIOD 287
  RECHARGE
    CONSTANT   0.11393500E-04
END PERIOD

BEGIN PERIOD 288
  RECHARGE
    CONSTANT   0.10807210E-04
END PERIOD

BEGIN PERIOD 289
  RECHARGE
    CONSTANT   0.10261620E-04
END PERIOD

BEGIN PERIOD 290
  RECHARGE
    CONSTANT   0.97312570E-05
END PERIOD

BEGIN PERIOD 291
  RECHARGE
    CONSTANT   0.92368390E-05
END PERIOD

BEGIN PERIOD 292
  RECHARGE
    CONSTANT   0.87740340E-05
END PERIOD

BEGIN PERIOD 293
  RECHARGE
    CONSTANT   0.83321200E-05
END PERIOD

BEGIN PERIOD 294
  RECHARGE
    CONSTANT   0.79129880E-05
END PERIOD

BEGIN PERIOD 295
  RECHARGE
    CONSTANT   0.75155260E-05
END PERIOD

BEGIN PERIOD 296
  RECHARGE
    CONSTANT   0.71609710E-05
END PERIOD

BEGIN PERIOD 297
  RECHARGE
    CONSTANT   0.68307940E-05
END PERIOD

BEGIN PERIOD 298
  RECHARGE
    CONSTANT   0.65218810E-05
END PERIOD

BEGIN PERIOD 299
  RECHARGE
    CONSTANT   0.62459840E-05
END PERIOD

BEGIN PERIOD 300
  RECHARGE
    CONSTANT   0.59953280E-05
END PERIOD

BEGIN PERIOD 301
  RECHARGE
    CONSTANT   0.57738380E-05
END PERIOD

BEGIN PERIOD 302
  RECHARGE
    CONSTANT   0.55773320E-05
END PERIOD

BEGIN PERIOD 303
  RECHARGE
    CONSTANT   0.54163470E-05
END PERIOD

BEGIN PERIOD 304
  RECHARGE
    CONSTANT   0.52805760E-05
END PERIOD

BEGIN PERIOD 305
  RECHARGE
    CONSTANT   0.51655970E-05
END PERIOD

BEGIN PERIOD 306
  RECHARGE
    CONSTANT   0.50903670E-05
END PERIOD

BEGIN PERIOD 307
  RECHARGE
    CONSTANT   0.50334320E-05
END PERIOD

BEGIN PERIOD 308
  RECHARGE
    CONSTANT   0.50123210E-05
END PERIOD

BEGIN PERIOD 309
  RECHARGE
    CONSTANT   0.50101840E-05
END PERIOD

BEGIN PERIOD 310
  RECHARGE
    CONSTANT   0.50439430E-05
END PERIOD

BEGIN PERIOD 311
  RECHARGE
    CONSTANT   0.51049170E-05
END PERIOD

BEGIN PERIOD 312
  RECHARGE
    CONSTANT   0.51956090E-05
END PERIOD

BEGIN PERIOD 313
  RECHARGE
    CONSTANT   0.53100120E-05
END PERIOD

BEGIN PERIOD 314
  RECHARGE
    CONSTANT   0.54545800E-05
END PERIOD

BEGIN PERIOD 315
  RECHARGE
    CONSTANT   0.56335030E-05
END PERIOD

BEGIN PERIOD 316
  RECHARGE
    CONSTANT   0.58286960E-05
END PERIOD

BEGIN PERIOD 317
  RECHARGE
    CONSTANT   0.60628870E-05
END PERIOD

BEGIN PERIOD 318
  RECHARGE
    CONSTANT   0.63214450E-05
END PERIOD

BEGIN PERIOD 319
  RECHARGE
    CONSTANT   0.66037540E-05
END PERIOD

BEGIN PERIOD 320
  RECHARGE
    CONSTANT   0.69166570E-05
END PERIOD

BEGIN PERIOD 321
  RECHARGE
    CONSTANT   0.72535480E-05
END PERIOD

BEGIN PERIOD 322
  RECHARGE
    CONSTANT   0.76231750E-05
END PERIOD

BEGIN PERIOD 323
  RECHARGE
    CONSTANT   0.80239210E-05
END PERIOD

BEGIN PERIOD 324
  RECHARGE
    CONSTANT   0.84438140E-05
END PERIOD

BEGIN PERIOD 325
  RECHARGE
    CONSTANT   0.88949840E-05
END PERIOD

BEGIN PERIOD 326
  RECHARGE
    CONSTANT   0.93711940E-05
END PERIOD

BEGIN PERIOD 327
  RECHARGE
    CONSTANT   0.98670730E-05
END PERIOD

BEGIN PERIOD 328
  RECHARGE
    CONSTANT   0.10411060E-04
END PERIOD

BEGIN PERIOD 329
  RECHARGE
    CONSTANT   0.10963240E-04
END PERIOD

BEGIN PERIOD 330
  RECHARGE
    CONSTANT   0.11549020E-04
END PERIOD

BEGIN PERIOD 331
  RECHARGE
    CONSTANT   0.12155990E-04
END PERIOD

BEGIN PERIOD 332
  RECHARGE
    CONSTANT   0.12806310E-04
END PERIOD

BEGIN PERIOD 333
  RECHARGE
    CONSTANT   0.13458940E-04
END PERIOD

BEGIN PERIOD 334
  RECHARGE
    CONSTANT   0.14144000E-04
END PERIOD

BEGIN PERIOD 335
  RECHARGE
    CONSTANT   0.14862410E-04
END PERIOD

BEGIN PERIOD 336
  RECHARGE
    CONSTANT   0.15614000E-04
END PERIOD

BEGIN PERIOD 337
  RECHARGE
    CONSTANT   0.16359400E-04
END PERIOD

BEGIN PERIOD 338
  RECHARGE
    CONSTANT   0.17157400E-04
END PERIOD

BEGIN PERIOD 339
  RECHARGE
    CONSTANT   0.17963160E-04
END PERIOD

BEGIN PERIOD 340
  RECHARGE
    CONSTANT   0.18791570E-04
END PERIOD

BEGIN PERIOD 341
  RECHARGE
    CONSTANT   0.19682860E-04
END PERIOD

BEGIN PERIOD 342
  RECHARGE
    CONSTANT   0.20553220E-04
END PERIOD

BEGIN PERIOD 343
  RECHARGE
    CONSTANT   0.21479080E-04
END PERIOD

BEGIN PERIOD 344
  RECHARGE
    CONSTANT   0.22412280E-04
END PERIOD

BEGIN PERIOD 345
  RECHARGE
    CONSTANT   0.23356770E-04
END PERIOD

BEGIN PERIOD 346
  RECHARGE
    CONSTANT   0.24347840E-04
END PERIOD

BEGIN PERIOD 347
  RECHARGE
    CONSTANT   0.25339910E-04
END PERIOD

BEGIN PERIOD 348
  RECHARGE
    CONSTANT   0.26347540E-04
END PERIOD

BEGIN PERIOD 349
  RECHARGE
    CONSTANT   0.27408120E-04
END PERIOD

BEGIN PERIOD 350
  RECHARGE
    CONSTANT   0.28481650E-04
END PERIOD

BEGIN PERIOD 351
  RECHARGE
    CONSTANT   0.29565310E-04
END PERIOD

BEGIN PERIOD 352
  RECHARGE
    CONSTANT   0.30681650E-04
END PERIOD

BEGIN PERIOD 353
  RECHARGE
    CONSTANT   0.31771850E-04
END PERIOD

BEGIN PERIOD 354
  RECHARGE
    CONSTANT   0.32954700E-04
END PERIOD

BEGIN PERIOD 355
  RECHARGE
    CONSTANT   0.34157900E-04
END PERIOD

BEGIN PERIOD 356
  RECHARGE
    CONSTANT   0.35348120E-04
END PERIOD

BEGIN PERIOD 357
  RECHARGE
    CONSTANT   0.36545800E-04
END PERIOD

BEGIN PERIOD 358
  RECHARGE
    CONSTANT   0.37763710E-04
END PERIOD

BEGIN PERIOD 359
  RECHARGE
    CONSTANT   0.39000800E-04
END PERIOD

BEGIN PERIOD 360
  RECHARGE
    CONSTANT   0.40270820E-04
END PERIOD

BEGIN PERIOD 361
  RECHARGE
    CONSTANT   0.41548530E-04
END PERIOD

BEGIN PERIOD 362
  RECHARGE
    CONSTANT   0.42849470E-04
END PERIOD

BEGIN PERIOD 363
  RECHARGE
    CONSTANT   0.44171070E-04
END PERIOD

BEGIN PERIOD 364
  RECHARGE
    CONSTANT   0.45480130E-04
END PERIOD

BEGIN PERIOD 365
  RECHARGE
    CONSTANT   0.46889770E-04
END PERIOD

BEGIN PERIOD 366
  RECHARGE
    CONSTANT   0.48227830E-04
END PERIOD

BEGIN PERIOD 367
  RECHARGE
    CONSTANT   0.49578770E-04
END PERIOD

BEGIN PERIOD 368
  RECHARGE
    CONSTANT   0.50975760E-04
END PERIOD

BEGIN PERIOD 369
  RECHARGE
    CONSTANT   0.52408710E-04
END PERIOD

BEGIN PERIOD 370
  RECHARGE
    CONSTANT   0.53851270E-04
END PERIOD

BEGIN PERIOD 371
  RECHARGE
    CONSTANT   0.55248400E-04
END PERIOD

BEGIN PERIOD 372
  RECHARGE
    CONSTANT   0.56742890E-04
END PERIOD

BEGIN PERIOD 373
  RECHARGE
    CONSTANT   0.58216860E-04
END PERIOD

BEGIN PERIOD 374
  RECHARGE
    CONSTANT   0.59693790E-04
END PERIOD

BEGIN PERIOD 375
  RECHARGE
    CONSTANT   0.61158760E-04
END PERIOD

BEGIN PERIOD 376
  RECHARGE
    CONSTANT   0.62707540E-04
END PERIOD

BEGIN PERIOD 377
  RECHARGE
    CONSTANT   0.64152850E-04
END PERIOD

BEGIN PERIOD 378
  RECHARGE
    CONSTANT   0.65724480E-04
END PERIOD

BEGIN PERIOD 379
  RECHARGE
    CONSTANT   0.67260320E-04
END PERIOD

BEGIN PERIOD 380
  RECHARGE
    CONSTANT   0.68784170E-04
END PERIOD

BEGIN PERIOD 381
  RECHARGE
    CONSTANT   0.70381450E-04
END PERIOD

BEGIN PERIOD 382
  RECHARGE
    CONSTANT   0.71955360E-04
END PERIOD

BEGIN PERIOD 383
  RECHARGE
    CONSTANT   0.73478220E-04
END PERIOD

BEGIN PERIOD 384
  RECHARGE
    CONSTANT   0.75150640E-04
END PERIOD

BEGIN PERIOD 385
  RECHARGE
    CONSTANT   0.76591520E-04
END PERIOD

BEGIN PERIOD 386
  RECHARGE
    CONSTANT   0.78234610E-04
END PERIOD

BEGIN PERIOD 387
  RECHARGE
    CONSTANT   0.79898960E-04
END PERIOD

BEGIN PERIOD 388
  RECHARGE
    CONSTANT   0.81456690E-04
END PERIOD

BEGIN PERIOD 389
  RECHARGE
    CONSTANT   0.83083430E-04
END PERIOD

BEGIN PERIOD 390
  RECHARGE
    CONSTANT   0.84595220E-04
END PERIOD

BEGIN PERIOD 391
  RECHARGE
    CONSTANT   0.86191850E-04
END PERIOD

BEGIN PERIOD 392
  RECHARGE
    CONSTANT   0.87910350E-04
END PERIOD

BEGIN PERIOD 393
  RECHARGE
    CONSTANT   0.89484730E-04
END PERIOD

BEGIN PERIOD 394
  RECHARGE
    CONSTANT   0.91171110E-04
END PERIOD

BEGIN PERIOD 395
  RECHARGE
    CONSTANT   0.92824100E-04
END PERIOD

BEGIN PERIOD 396
  RECHARGE
    CONSTANT   0.94439440E-04
END PERIOD

BEGIN PERIOD 397
  RECHARGE
    CONSTANT   0.96128190E-04
END PERIOD

BEGIN PERIOD 398
  RECHARGE
    CONSTANT   0.97767090E-04
END PERIOD

BEGIN PERIOD 399
  RECHARGE
    CONSTANT   0.99367070E-04
END PERIOD

BEGIN PERIOD 400
  RECHARGE
    CONSTANT   0.10097180E-03
END PERIOD

BEGIN PERIOD 401
  RECHARGE
    CONSTANT   0.10269810E-03
END PERIOD

BEGIN PERIOD 402
  RECHARGE
    CONSTANT   0.10430340E-03
END PERIOD

BEGIN PERIOD 403
  RECHARGE
    CONSTANT   0.10580930E-03
END PERIOD

BEGIN PERIOD 404
  RECHARGE
    CONSTANT   0.10753860E-03
END PERIOD

BEGIN PERIOD 405
  RECHARGE
    CONSTANT   0.10915420E-03
END PERIOD

BEGIN PERIOD 406
  RECHARGE
    CONSTANT   0.11083310E-03
END PERIOD

BEGIN PERIOD 407
  RECHARGE
    CONSTANT   0.11250340E-03
END PERIOD

BEGIN PERIOD 408
  RECHARGE
    CONSTANT   0.11404940E-03
END PERIOD

BEGIN PERIOD 409
  RECHARGE
    CONSTANT   0.11573370E-03
END PERIOD

BEGIN PERIOD 410
  RECHARGE
    CONSTANT   0.11730100E-03
END PERIOD

BEGIN PERIOD 411
  RECHARGE
    CONSTANT   0.11889650E-03
END PERIOD

BEGIN PERIOD 412
  RECHARGE
    CONSTANT   0.12040140E-03
END PERIOD

BEGIN PERIOD 413
  RECHARGE
    CONSTANT   0.12208220E-03
END PERIOD

BEGIN PERIOD 414
  RECHARGE
    CONSTANT   0.12367710E-03
END PERIOD

BEGIN PERIOD 415
  RECHARGE
    CONSTANT   0.12526990E-03
END PERIOD

BEGIN PERIOD 416
  RECHARGE
    CONSTANT   0.12692870E-03
END PERIOD

BEGIN PERIOD 417
  RECHARGE
    CONSTANT   0.12850970E-03
END PERIOD

BEGIN PERIOD 418
  RECHARGE
    CONSTANT   0.12997450E-03
END PERIOD

BEGIN PERIOD 419
  RECHARGE
    CONSTANT   0.13156920E-03
END PERIOD

BEGIN PERIOD 420
  RECHARGE
    CONSTANT   0.13316570E-03
END PERIOD

BEGIN PERIOD 421
  RECHARGE
    CONSTANT   0.13464410E-03
END PERIOD

BEGIN PERIOD 422
  RECHARGE
    CONSTANT   0.13619740E-03
END PERIOD

BEGIN PERIOD 423
  RECHARGE
    CONSTANT   0.13763880E-03
END PERIOD

BEGIN PERIOD 424
  RECHARGE
    CONSTANT   0.13906480E-03
END PERIOD

BEGIN PERIOD 425
  RECHARGE
    CONSTANT   0.14065460E-03
END PERIOD

BEGIN PERIOD 426
  RECHARGE
    CONSTANT   0.14211090E-03
END PERIOD

BEGIN PERIOD 427
  RECHARGE
    CONSTANT   0.14366560E-03
END PERIOD

BEGIN PERIOD 428
  RECHARGE
    CONSTANT   0.14503980E-03
END PERIOD

BEGIN PERIOD 429
  RECHARGE