# DIS6 input file, prepared by MF5to6 on 6/30/2020 at 17:28:57.

BEGIN Options
  LENGTH_UNITS  METERS
END Options

BEGIN Dimensions
  NLAY  3
  NROW  120
  NCOL  60
END Dimensions

BEGIN GRIDDATA
  DELR
    CONSTANT    83.3333400        DELR
  DELC
    CONSTANT    83.3333400        DELC
  TOP LAYERED
    INTERNAL  FACTOR    1.000000      IPRN  3
   41.40240       41.40240       41.40240       41.33081       41.33081       41.33081       41.17999       41.17999       41.17999       40.95432    
   40.95432       40.95432       40.70931       40.70931       40.70931       40.43085       40.43085       40.43085       40.09084       40.09084    
   40.09084       39.79636       39.79636       39.79636       39.44411       39.44411       39.44411       39.08687       39.08687       39.08687    
   38.74368       38.74368       38.74368       38.40399       38.40399       38.40399       38.05364       38.05364       38.05364       37.67211    
   37.67211       37.67211       37.27559       37.27559       37.27559       36.81372       36.81372       36.81372       36.96497       36.96497    
   36.96497       37.03937       37.03937       37.03937       37.08693       37.08693       37.08693       37.11279       37.11279       37.11279    
   41.40240       41.40240       41.40240       41.33081       41.33081       41.33081       41.17999       41.17999       41.17999       40.95432    
   40.95432       40.95432       40.70931       40.70931       40.70931       40.43085       40.43085       40.43085       40.09084       40.09084    
   40.09084       39.79636       39.79636       39.79636       39.44411       39.44411       39.44411       39.08687       39.08687       39.08687    
   38.74368       38.74368       38.74368       38.40399       38.40399       38.40399       38.05364       38.05364       38.05364       37.67211    
   37.67211       37.67211       37.27559       37.27559       37.27559       36.81372       36.81372       36.81372       36.96497       36.96497    
   36.96497       37.03937       37.03937       37.03937       37.08693       37.08693       37.08693       37.11279       37.11279       37.11279    
   41.40240       41.40240       41.40240       41.33081       41.33081       41.33081       41.17999       41.17999       41.17999       40.95432    
   40.95432       40.95432       40.70931       40.70931       40.70931       40.43085       40.43085       40.43085       40.09084       40.09084    
   40.09084       39.79636       39.79636       39.79636       39.44411       39.44411       39.44411       39.08687       39.08687       39.08687    
   38.74368       38.74368       38.74368       38.40399       38.40399       38.40399       38.05364       38.05364       38.05364       37.67211    
   37.67211       37.67211       37.27559       37.27559       37.27559       36.81372       36.81372       36.81372       36.96497       36.96497    
   36.96497       37.03937       37.03937       37.03937       37.08693       37.08693       37.08693       37.11279       37.11279       37.11279    
   41.41753       41.41753       41.41753       41.33787       41.33787       41.33787       41.18803       41.18803       41.18803       40.95626    
   40.95626       40.95626       40.71925       40.71925       40.71925       40.43606       40.43606       40.43606       40.09564       40.09564    
   40.09564       39.78070       39.78070       39.78070       39.43545       39.43545       39.43545       39.06076       39.06076       39.06076    
   38.71861       38.71861       38.71861       38.38353       38.38353       38.38353       38.03437       38.03437       38.03437       37.65467    
   37.65467       37.65467       37.27021       37.27021       37.27021       36.80560       36.80560       36.80560       36.95537       36.95537    
   36.95537       37.03091       37.03091       37.03091       37.07886       37.07886       37.07886       37.10387       37.10387       37.10387    
   41.41753       41.41753       41.41753       41.33787       41.33787       41.33787       41.18803       41.18803       41.18803       40.95626    
   40.95626       40.95626       40.71925       40.71925       40.71925       40.43606       40.43606       40.43606       40.09564       40.09564    
   40.09564       39.78070       39.78070       39.78070       39.43545       39.43545       39.43545       39.06076       39.06076       39.06076    
   38.71861       38.71861       38.71861       38.38353       38.38353       38.38353       38.03437       38.03437       38.03437       37.65467    
   37.65467       37.65467       37.27021       37.27021       37.27021       36.80560       36.80560       36.80560       36.95537       36.95537    
   36.95537       37.03091       37.03091       37.03091       37.07886       37.07886       37.07886       37.10387       37.10387       37.10387    
   41.41753       41.41753       41.41753       41.33787       41.33787       41.33787       41.18803       41.18803       41.18803       40.95626    
   40.95626       40.95626       40.71925       40.71925       40.71925       40.43606       40.43606       40.43606       40.09564       40.09564    
   40.09564       39.78070       39.78070       39.78070       39.43545       39.43545       39.43545       39.06076       39.06076       39.06076    
   38.71861       38.71861       38.71861       38.38353       38.38353       38.38353       38.03437       38.03437       38.03437       37.65467    
   37.65467       37.65467       37.27021       37.27021       37.27021       36.80560       36.80560       36.80560       36.95537       36.95537    
   36.95537       37.03091       37.03091       37.03091       37.07886       37.07886       37.07886       37.10387       37.10387       37.10387    
   41.44245       41.44245       41.44245       41.36702       41.36702       41.36702       41.20671       41.20671       41.20671       40.97007    
   40.97007       40.97007       40.73389       40.73389       40.73389       40.44087       40.44087       40.44087       40.08412       40.08412    
   40.08412       39.76557       39.76557       39.76557       39.39819       39.39819       39.39819       39.03209       39.03209       39.03209    
   38.67385       38.67385       38.67385       38.34215       38.34215       38.34215       37.99277       37.99277       37.99277       37.62735    
   37.62735       37.62735       37.25536       37.25536       37.25536       36.79268       36.79268       36.79268       36.93945       36.93945    
   36.93945       37.01274       37.01274       37.01274       37.06073       37.06073       37.06073       37.08591       37.08591       37.08591    
   41.44245       41.44245       41.44245       41.36702       41.36702       41.36702       41.20671       41.20671       41.20671       40.97007    
   40.97007       40.97007       40.73389       40.73389       40.73389       40.44087       40.44087       40.44087       40.08412       40.08412    
   40.08412       39.76557       39.76557       39.76557       39.39819       39.39819       39.39819       39.03209       39.03209       39.03209    
   38.67385       38.67385       38.67385       38.34215       38.34215       38.34215       37.99277       37.99277       37.99277       37.62735    
   37.62735       37.62735       37.25536       37.25536       37.25536       36.79268       36.79268       36.79268       36.93945       36.93945    
   36.93945       37.01274       37.01274       37.01274       37.06073       37.06073       37.06073       37.08591       37.08591       37.08591    
   41.44245       41.44245       41.44245       41.36702       41.36702       41.36702       41.20671       41.20671       41.20671       40.97007    
   40.97007       40.97007       40.73389       40.73389       40.73389       40.44087       40.44087       40.44087       40.08412       40.08412    
   40.08412       39.76557       39.76557       39.76557       39.39819       39.39819       39.39819       39.03209       39.03209       39.03209    
   38.67385       38.67385       38.67385       38.34215       38.34215       38.34215       37.99277       37.99277       37.99277       37.62735    
   37.62735       37.62735       37.25536       37.25536       37.25536       36.79268       36.79268       36.79268       36.93945       36.93945    
   36.93945       37.01274       37.01274       37.01274       37.06073       37.06073       37.06073       37.08591       37.08591       37.08591    
   41.48380       41.48380       41.48380       41.40802       41.40802       41.40802       41.24792       41.24792       41.24792       41.00307    
   41.00307       41.00307       40.74854       40.74854       40.74854       40.45048       40.45048       40.45048       40.07338       40.07338    
   40.07338       39.72918       39.72918       39.72918       39.36676       39.36676       39.36676       38.95456       38.95456       38.95456    
   38.60112       38.60112       38.60112       38.27567       38.27567       38.27567       37.93710       37.93710       37.93710       37.58903    
   37.58903       37.58903       37.21910       37.21910       37.21910       36.77654       36.77654       36.77654       36.92007       36.92007    
   36.92007       36.98705       36.98705       36.98705       37.03389       37.03389       37.03389       37.05762       37.05762       37.05762    
   41.48380       41.48380       41.48380       41.40802       41.40802       41.40802       41.24792       41.24792       41.24792       41.00307    
   41.00307       41.00307       40.74854       40.74854       40.74854       40.45048       40.45048       40.45048       40.07338       40.07338    
   40.07338       39.72918       39.72918       39.72918       39.36676       39.36676       39.36676       38.95456       38.95456       38.95456    
   38.60112       38.60112       38.60112       38.27567       38.27567       38.27567       37.93710       37.93710       37.93710       37.58903    
   37.58903       37.58903       37.21910       37.21910       37.21910       36.77654       36.77654       36.77654       36.92007       36.92007    
   36.92007       36.98705       36.98705       36.98705       37.03389       37.03389       37.03389       37.05762       37.05762       37.05762    
   41.48380       41.48380       41.48380       41.40802       41.40802       41.40802       41.24792       41.24792       41.24792       41.00307    
   41.00307       41.00307       40.74854       40.74854       40.74854       40.45048       40.45048       40.45048       40.07338       40.07338    
   40.07338       39.72918       39.72918       39.72918       39.36676       39.36676       39.36676       38.95456       38.95456       38.95456    
   38.60112       38.60112       38.60112       38.27567       38.27567       38.27567       37.93710       37.93710       37.93710       37.58903    
   37.58903       37.58903       37.21910       37.21910       37.21910       36.77654       36.77654       36.77654       36.92007       36.92007    
   36.92007       36.98705       36.98705       36.98705       37.03389       37.03389       37.03389       37.05762       37.05762       37.05762    
   41.54239       41.54239       41.54239       41.45901       41.45901       41.45901       41.29391       41.29391       41.29391       41.05542    
   41.05542       41.05542       40.78231       40.78231       40.78231       40.44468       40.44468       40.44468       40.06211       40.06211    
   40.06211       39.71255       39.71255       39.71255       39.27607       39.27607       39.27607       38.87059       38.87059       38.87059    
   38.52362       38.52362       38.52362       38.20268       38.20268       38.20268       37.87408       37.87408       37.87408       37.53572    
   37.53572       37.53572       37.17611       37.17611       37.17611       36.75341       36.75341       36.75341       36.88242       36.88242    
   36.88242       36.95008       36.95008       36.95008       36.99477       36.99477       36.99477       37.01869       37.01869       37.01869    
   41.54239       41.54239       41.54239       41.45901       41.45901       41.45901       41.29391       41.29391       41.29391       41.05542    
   41.05542       41.05542       40.78231       40.78231       40.78231       40.44468       40.44468       40.44468       40.06211       40.06211    
   40.06211       39.71255       39.71255       39.71255       39.27607       39.27607       39.27607       38.87059       38.87059       38.87059    
   38.52362       38.52362       38.52362       38.20268       38.20268       38.20268       37.87408       37.87408       37.87408       37.53572    
   37.53572       37.53572       37.17611       37.17611       37.17611       36.75341       36.75341       36.75341       36.88242       36.88242    
   36.88242       36.95008       36.95008       36.95008       36.99477       36.99477       36.99477       37.01869       37.01869       37.01869    
   41.54239       41.54239       41.54239       41.45901       41.45901       41.45901       41.29391       41.29391       41.29391       41.05542    
   41.05542       41.05542       40.78231       40.78231       40.78231       40.44468       40.44468       40.44468       40.06211       40.06211    
   40.06211       39.71255       39.71255       39.71255       39.27607       39.27607       39.27607       38.87059       38.87059       38.87059    
   38.52362       38.52362       38.52362       38.20268       38.20268       38.20268       37.87408       37.87408       37.87408       37.53572    
   37.53572       37.53572       37.17611       37.17611       37.17611       36.75341       36.75341       36.75341       36.88242       36.88242    
   36.88242       36.95008       36.95008       36.95008       36.99477       36.99477       36.99477       37.01869       37.01869       37.01869    
   41.60534       41.60534       41.60534       41.53455       41.53455       41.53455       41.36453       41.36453       41.36453       41.11573    
   41.11573       41.11573       40.82088       40.82088       40.82088       40.46301       40.46301       40.46301       40.05827       40.05827    
   40.05827       39.61914       39.61914       39.61914       39.20841       39.20841       39.20841       38.77740       38.77740       38.77740    
   38.40944       38.40944       38.40944       38.10872       38.10872       38.10872       37.79416       37.79416       37.79416       37.46841    
   37.46841       37.46841       37.12472       37.12472       37.12472       36.71585       36.71585       36.71585       36.83689       36.83689    
   36.83689       36.89748       36.89748       36.89748       36.94604       36.94604       36.94604       36.97164       36.97164       36.97164    
   41.60534       41.60534       41.60534       41.53455       41.53455       41.53455       41.36453       41.36453       41.36453       41.11573    
   41.11573       41.11573       40.82088       40.82088       40.82088       40.46301       40.46301       40.46301       40.05827       40.05827    
   40.05827       39.61914       39.61914       39.61914       39.20841       39.20841       39.20841       38.77740       38.77740       38.77740    
   38.40944       38.40944       38.40944       38.10872       38.10872       38.10872       37.79416       37.79416       37.79416       37.46841    
   37.46841       37.46841       37.12472       37.12472       37.12472       36.71585       36.71585       36.71585       36.83689       36.83689    
   36.83689       36.89748       36.89748       36.89748       36.94604       36.94604       36.94604       36.97164       36.97164       36.97164    
   41.60534       41.60534       41.60534       41.53455       41.53455       41.53455       41.36453       41.36453       41.36453       41.11573    
   41.11573       41.11573       40.82088       40.82088       40.82088       40.46301       40.46301       40.46301       40.05827       40.05827    
   40.05827       39.61914       39.61914       39.61914       39.20841       39.20841       39.20841       38.77740       38.77740       38.77740    
   38.40944       38.40944       38.40944       38.10872       38.10872       38.10872       37.79416       37.79416       37.79416       37.46841    
   37.46841       37.46841       37.12472       37.12472       37.12472       36.71585       36.71585       36.71585       36.83689       36.83689    
   36.83689       36.89748       36.89748       36.89748       36.94604       36.94604       36.94604       36.97164       36.97164       36.97164    
   41.68361       41.68361       41.68361       41.61142       41.61142       41.61142       41.46446       41.46446       41.46446       41.20088    
   41.20088       41.20088       40.87869       40.87869       40.87869       40.45464       40.45464       40.45464       40.02824       40.02824    
   40.02824       39.50999       39.50999       39.50999       39.06732       39.06732       39.06732       38.62727       38.62727       38.62727    
   38.28530       38.28530       38.28530       37.99799       37.99799       37.99799       37.69825       37.69825       37.69825       37.38658    
   37.38658       37.38658       37.05692       37.05692       37.05692       36.66760       36.66760       36.66760       36.77657       36.77657    
   36.77657       36.83593       36.83593       36.83593       36.88470       36.88470       36.88470       36.91358       36.91358       36.91358    
   41.68361       41.68361       41.68361       41.61142       41.61142       41.61142       41.46446       41.46446       41.46446       41.20088    
   41.20088       41.20088       40.87869       40.87869       40.87869       40.45464       40.45464       40.45464       40.02824       40.02824    
   40.02824       39.50999       39.50999       39.50999       39.06732       39.06732       39.06732       38.62727       38.62727       38.62727    
   38.28530       38.28530       38.28530       37.99799       37.99799       37.99799       37.69825       37.69825       37.69825       37.38658    
   37.38658       37.38658       37.05692       37.05692       37.05692       36.66760       36.66760       36.66760       36.77657       36.77657    
   36.77657       36.83593       36.83593       36.83593       36.88470       36.88470       36.88470       36.91358       36.91358       36.91358    
   41.68361       41.68361       41.68361       41.61142       41.61142       41.61142       41.46446       41.46446       41.46446       41.20088    
   41.20088       41.20088       40.87869       40.87869       40.87869       40.45464       40.45464       40.45464       40.02824       40.02824    
   40.02824       39.50999       39.50999       39.50999       39.06732       39.06732       39.06732       38.62727       38.62727       38.62727    
   38.28530       38.28530       38.28530       37.99799       37.99799       37.99799       37.69825       37.69825       37.69825       37.38658    
   37.38658       37.38658       37.05692       37.05692       37.05692       36.66760       36.66760       36.66760       36.77657       36.77657    
   36.77657       36.83593       36.83593       36.83593       36.88470       36.88470       36.88470       36.91358       36.91358       36.91358    
   41.80635       41.80635       41.80635       41.73301       41.73301       41.73301       41.60455       41.60455       41.60455       41.36411    
   41.36411       41.36411       40.93629       40.93629       40.93629       40.46154       40.46154       40.46154       39.95647       39.95647    
   39.95647       39.33681       39.33681       39.33681       38.85104       38.85104       38.85104       38.44459       38.44459       38.44459    
   38.13887       38.13887       38.13887       37.87000       37.87000       37.87000       37.58790       37.58790       37.58790       37.28421    
   37.28421       37.28421       36.97276       36.97276       36.97276       36.60574       36.60574       36.60574       36.68644       36.68644    
   36.68644       36.75731       36.75731       36.75731       36.81558       36.81558       36.81558       36.85176       36.85176       36.85176    
   41.80635       41.80635       41.80635       41.73301       41.73301       41.73301       41.60455       41.60455       41.60455       41.36411    
   41.36411       41.36411       40.93629       40.93629       40.93629       40.46154       40.46154       40.46154       39.95647       39.95647    
   39.95647       39.33681       39.33681       39.33681       38.85104       38.85104       38.85104       38.44459       38.44459       38.44459    
   38.13887       38.13887       38.13887       37.87000       37.87000       37.87000       37.58790       37.58790       37.58790       37.28421    
   37.28421       37.28421       36.97276       36.97276       36.97276       36.60574       36.60574       36.60574       36.68644       36.68644    
   36.68644       36.75731       36.75731       36.75731       36.81558       36.81558       36.81558       36.85176       36.85176       36.85176    
   41.80635       41.80635       41.80635       41.73301       41.73301       41.73301       41.60455       41.60455       41.60455       41.36411    
   41.36411       41.36411       40.93629       40.93629       40.93629       40.46154       40.46154       40.46154       39.95647       39.95647    
   39.95647       39.33681       39.33681       39.33681       38.85104       38.85104       38.85104       38.44459       38.44459       38.44459    
   38.13887       38.13887       38.13887       37.87000       37.87000       37.87000       37.58790       37.58790       37.58790       37.28421    
   37.28421       37.28421       36.97276       36.97276       36.97276       36.60574       36.60574       36.60574       36.68644       36.68644    
   36.68644       36.75731       36.75731       36.75731       36.81558       36.81558       36.81558       36.85176       36.85176       36.85176    
   41.92367       41.92367       41.92367       41.87130       41.87130       41.87130       41.79509       41.79509       41.79509       41.72395    
   41.72395       41.72395      -1049.990      -1049.990      -1049.990      -1049.990      -1049.990      -1049.990      -1049.990      -1049.990    
  -1049.990       38.91967       38.91967       38.91967       38.51255       38.51255       38.51255       38.22691       38.22691       38.22691    
   37.97980       37.97980       37.97980       37.72636       37.72636       37.72636       37.45673       37.45673       37.45673       37.17269    
   37.17269       37.17269       36.87622       36.87622       36.87622       36.52253       36.52253       36.52253       36.54354       36.54354    
   36.54354       36.65379       36.65379       36.65379       36.74355       36.74355       36.74355       36.78944       36.78944       36.78944    
   41.92367       41.92367       41.92367       41.87130       41.87130       41.87130       41.79509       41.79509       41.79509       41.72395    
   41.72395       41.72395      -1049.990      -1049.990      -1049.990      -1049.990      -1049.990      -1049.990      -1049.990      -1049.990    
  -1049.990       38.91967       38.91967       38.91967       38.51255       38.51255       38.51255       38.22691       38.22691       38.22691    
   37.97980       37.97980       37.97980       37.72636       37.72636       37.72636       37.45673       37.45673       37.45673       37.17269    
   37.17269       37.17269       36.87622       36.87622       36.87622       36.52253       36.52253       36.52253       36.54354       36.54354    
   36.54354       36.65379       36.65379       36.65379       36.74355       36.74355       36.74355       36.78944       36.78944       36.78944    
   41.92367       41.92367       41.92367       41.87130       41.87130       41.87130       41.79509       41.79509       41.79509       41.72395    
   41.72395       41.72395      -1049.990      -1049.990      -1049.990      -1049.990      -1049.990      -1049.990      -1049.990      -1049.990    
  -1049.990       38.91967       38.91967       38.91967       38.51255       38.51255       38.51255       38.22691       38.22691       38.22691    
   37.97980       37.97980       37.97980       37.72636       37.72636       37.72636       37.45673       37.45673       37.45673       37.17269    
   37.17269       37.17269       36.87622       36.87622       36.87622       36.52253       36.52253       36.52253       36.54354       36.54354    
   36.54354       36.65379       36.65379       36.65379       36.74355       36.74355       36.74355       36.78944       36.78944       36.78944    
   42.03880       42.03880       42.03880       41.99784       41.99784       41.99784       41.96479       41.96479       41.96479       41.92723    
   41.92723       41.92723      -1049.990      -1049.990      -1049.990      -1049.990      -1049.990      -1049.990      -1049.990      -1049.990    
  -1049.990      -1049.990      -1049.990      -1049.990       38.16611       38.16611       38.16611       38.00510       38.00510       38.00510    
   37.80128       37.80128       37.80128       37.57563       37.57563       37.57563       37.31744       37.31744       37.31744       37.03664    
   37.03664       37.03664       36.76944       36.76944       36.76944       36.42353       36.42353       36.42353       36.25089       36.25089    
   36.25089       36.54821       36.54821       36.54821       36.68683       36.68683       36.68683       36.74303       36.74303       36.74303    
   42.03880       42.03880       42.03880       41.99784       41.99784       41.99784       41.96479       41.96479       41.96479       41.92723    
   41.92723       41.92723      -1049.990      -1049.990      -1049.990      -1049.990      -1049.990      -1049.990      -1049.990      -1049.990    
  -1049.990      -1049.990      -1049.990      -1049.990       38.16611       38.16611       38.16611       38.00510       38.00510       38.00510    
   37.80128       37.80128       37.80128       37.57563       37.57563       37.57563       37.31744       37.31744       37.31744       37.03664    
   37.03664       37.03664       36.76944       36.76944       36.76944       36.42353       36.42353       36.42353       36.25089       36.25089    
   36.25089       36.54821       36.54821       36.54821       36.68683       36.68683       36.68683       36.74303       36.74303       36.74303    
   42.03880       42.03880       42.03880       41.99784       41.99784       41.99784       41.96479       41.96479       41.96479       41.92723    
   41.92723       41.92723      -1049.990      -1049.990      -1049.990      -1049.990      -1049.990      -1049.990      -1049.990      -1049.990    
  -1049.990      -1049.990      -1049.990      -1049.990       38.16611       38.16611       38.16611       38.00510       38.00510       38.00510    
   37.80128       37.80128       37.80128       37.57563       37.57563       37.57563       37.31744       37.31744       37.31744       37.03664    
   37.03664       37.03664       36.76944       36.76944       36.76944       36.42353       36.42353       36.42353       36.25089       36.25089    
   36.25089       36.54821       36.54821       36.54821       36.68683       36.68683       36.68683       36.74303       36.74303       36.74303    
   42.11337       42.11337       42.11337       42.09034       42.09034       42.09034       42.06820       42.06820       42.06820       42.05547    
   42.05547       42.05547      -1049.990      -1049.990      -1049.990      -1049.990      -1049.990      -1049.990      -1049.990      -1049.990    
  -1049.990      -1049.990      -1049.990      -1049.990       37.91784       37.91784       37.91784       37.80631       37.80631       37.80631    
   37.64214       37.64214       37.64214       37.43312       37.43312       37.43312       37.16574       37.16574       37.16574       36.86620    
   36.86620       36.86620       36.67557       36.67557       36.67557       36.42511       36.42511       36.42511       36.46034       36.46034    
   36.46034       36.58425       36.58425       36.58425       36.67849       36.67849       36.67849       36.72586       36.72586       36.72586    
   42.11337       42.11337       42.11337       42.09034       42.09034       42.09034       42.06820       42.06820       42.06820       42.05547    
   42.05547       42.05547      -1049.990      -1049.990      -1049.990      -1049.990      -1049.990      -1049.990      -1049.990      -1049.990    
  -1049.990      -1049.990      -1049.990      -1049.990       37.91784       37.91784       37.91784       37.80631       37.80631       37.80631    
   37.64214       37.64214       37.64214       37.43312       37.43312       37.43312       37.16574       37.16574       37.16574       36.86620    
   36.86620       36.86620       36.67557       36.67557       36.67557       36.42511       36.42511       36.42511       36.46034       36.46034    
   36.46034       36.58425       36.58425       36.58425       36.67849       36.67849       36.67849       36.72586       36.72586       36.72586    
   42.11337       42.11337       42.11337       42.09034       42.09034       42.09034       42.06820       42.06820       42.06820       42.05547    
   42.05547       42.05547      -1049.990      -1049.990      -1049.990      -1049.990      -1049.990      -1049.990      -1049.990      -1049.990    
  -1049.990      -1049.990      -1049.990      -1049.990       37.91784       37.91784       37.91784       37.80631       37.80631       37.80631    
   37.64214       37.64214       37.64214       37.43312       37.43312       37.43312       37.16574       37.16574       37.16574       36.86620    