BEGIN Options
  TIME_UNITS  days
END Options

BEGIN Dimensions
  NPER  731
END Dimensions

BEGIN PERIODDATA
       1.00000000  1       1.00000000  PERLEN NSTP TSMULT
       1.00000000  1       1.00000000  PERLEN NSTP TSMULT
       1.00000000  1       1.00000000  PERLEN NSTP TSMULT
       1.00000000  1       1.00000000  PERLEN NSTP TSMULT
       1.00000000  1       1.00000000  PERLEN NSTP TSMULT
       1.00000000  1       1.00000000  PERLEN NSTP TSMULT
       1.00000000  1       1.00000000  PERLEN NSTP TSMULT
       1.00000000  1       1.00000000  PERLEN NSTP TSMULT
       1.00000000  1       1.00000000  PERLEN NSTP TSMULT
       1.00000000  1       1.00000000  PERLEN NSTP TSMULT
       1.00000000  1       1.00000000  PERLEN NSTP TSMULT
       1.00000000  1       1.00000000  PERLEN NSTP TSMULT
       1.00000000  1       1.00000000  PERLEN NSTP TSMULT
       1.00000000  1       1.00000000  PERLEN NSTP TSMULT
       1.00000000  1       1.00000000  PERLEN NSTP TSMULT
       1.00000000  1       1.00000000  PERLEN NSTP TSMULT
       1.00000000  1       1.00000000  PERLEN NSTP TSMULT
       1.00000000  1       1.00000000  PERLEN NSTP TSMULT
       1.00000000  1       1.00000000  PERLEN NSTP TSMULT
       1.00000000  1       1.00000000  PERLEN NSTP TSMULT
       1.00000000  1       1.00000000  PERLEN NSTP TSMULT
       1.00000000  1       1.00000000  PERLEN NSTP TSMULT
       1.00000000  1       1.00000000  PERLEN NSTP TSMULT
       1.00000000  1       1.00000000  PERLEN NSTP TSMULT
       1.00000000  1       1.00000000  PERLEN NSTP TSMULT
       1.00000000  1       1.00000000  PERLEN NSTP TSMULT
       1.00000000  1       1.00000000  PERLEN NSTP TSMULT
       1.00000000  1       1.00000000  PERLEN NSTP TSMULT
       1.00000000  1       1.00000000  PERLEN NSTP TSMULT
       1.00000000  1       1.00000000  PERLEN NSTP TSMULT
       1.00000000  1       1.00000000  PERLEN NSTP TSMULT
       1.00000000  1       1.00000000  PERLEN NSTP TSMULT
       1.00000000  1       1.00000000  PERLEN NSTP TSMULT
       1.00000000  1       1.00000000  PERLEN NSTP TSMULT
       1.00000000  1       1.00000000  PERLEN NSTP TSMULT
       1.00000000  1       1.00000000  PERLEN NSTP TSMULT
       1.00000000  1       1.00000000  PERLEN NSTP TSMULT
       1.00000000  1       1.00000000  PERLEN NSTP TSMULT
       1.00000000  1       1.00000000  PERLEN NSTP TSMULT
       1.00000000  1       1.00000000  PERLEN NSTP TSMULT
       1.00000000  1       1.00000000  PERLEN NSTP TSMULT
       1.00000000  1       1.00000000  PERLEN NSTP TSMULT
       1.00000000  1       1.00000000  PERLEN NSTP TSMULT
       1.00000000  1       1.00000000  PERLEN NSTP TSMULT
       1.00000000  1       1.00000000  PERLEN NSTP TSMULT
       1.00000000  1       1.00000000  PERLEN NSTP TSMULT
       1.00000000  1       1.00000000  PERLEN NSTP TSMULT
       1.00000000  1       1.00000000  PERLEN NSTP TSMULT
       1.00000000  1       1.00000000  PERLEN NSTP TSMULT
       1.00000000  1       1.00000000  PERLEN NSTP TSMULT
       1.00000000  1       1.00000000  PERLEN NSTP TSMULT
       1.00000000  1       1.00000000  PERLEN NSTP TSMULT
       1.00000000  1       1.00000000  PERLEN NSTP TSMULT
       1.00000000  1       1.00000000  PERLEN NSTP TSMULT
       1.00000000  1       1.00000000  PERLEN NSTP TSMULT
       1.00000000  1       1.00000000  PERLEN NSTP TSMULT
       1.00000000  1       1.00000000  PERLEN NSTP TSMULT
       1.00000000  1       1.00000000  PERLEN NSTP TSMULT
       1.00000000  1       1.00000000  PERLEN NSTP TSMULT
       1.00000000  1       1.00000000  PERLEN NSTP TSMULT
       1.00000000  1       1.00000000  PERLEN NSTP TSMULT
       1.00000000  1       1.00000000  PERLEN NSTP TSMULT
       1.00000000  1       1.00000000  PERLEN NSTP TSMULT
       1.00000000  1       1.00000000  PERLEN NSTP TSMULT
       1.00000000  1       1.00000000  PERLEN NSTP TSMULT
       1.00000000  1       1.00000000  PERLEN NSTP TSMULT
       1.00000000  1       1.00000000  PERLEN NSTP TSMULT
       1.00000000  1       1.00000000  PERLEN NSTP TSMULT
       1.00000000  1       1.00000000  PERLEN NSTP TSMULT
       1.00000000  1       1.00000000  PERLEN NSTP TSMULT
       1.00000000  1       1.00000000  PERLEN NSTP TSMULT
       1.00000000  1       1.00000000  PERLEN NSTP TSMULT
       1.00000000  1       1.00000000  PERLEN NSTP TSMULT
       1.00000000  1       1.00000000  PERLEN NSTP TSMULT
       1.00000000  1       1.00000000  PERLEN NSTP TSMULT
       1.00000000  1       1.00000000  PERLEN NSTP TSMULT
       1.00000000  1       1.00000000  PERLEN NSTP TSMULT
       1.00000000  1       1.00000000  PERLEN NSTP TSMULT
       1.00000000  1       1.00000000  PERLEN NSTP TSMULT
       1.00000000  1       1.00000000  PERLEN NSTP TSMULT
       1.00000000  1       1.00000000  PERLEN NSTP TSMULT
       1.00000000  1       1.00000000  PERLEN NSTP TSMULT
       1.00000000  1       1.00000000  PERLEN NSTP TSMULT
       1.00000000  1       1.00000000  PERLEN NSTP TSMULT
       1.00000000  1       1.00000000  PERLEN NSTP TSMULT
       1.00000000  1       1.00000000  PERLEN NSTP TSMULT
       1.00000000  1       1.00000000  PERLEN NSTP TSMULT
       1.00000000  1       1.00000000  PERLEN NSTP TSMULT
       1.00000000  1       1.00000000  PERLEN NSTP TSMULT
       1.00000000  1       1.00000000  PERLEN NSTP TSMULT
       1.00000000  1       1.00000000  PERLEN NSTP TSMULT
       1.00000000  1       1.00000000  PERLEN NSTP TSMULT
       1.00000000  1       1.00000000  PERLEN NSTP TSMULT
       1.00000000  1       1.00000000  PERLEN NSTP TSMULT
       1.00000000  1       1.00000000  PERLEN NSTP TSMULT
       1.00000000  1       1.00000000  PERLEN NSTP TSMULT
       1.00000000  1       1.00000000  PERLEN NSTP TSMULT
       1.00000000  1       1.00000000  PERLEN NSTP TSMULT
       1.00000000  1       1.00000000  PERLEN NSTP TSMULT
       1.00000000  1       1.00000000  PERLEN NSTP TSMULT
       1.00000000  1       1.00000000  PERLEN NSTP TSMULT
       1.00000000  1       1.00000000  PERLEN NSTP TSMULT
       1.00000000  1       1.00000000  PERLEN NSTP TSMULT
       1.00000000  1       1.00000000  PERLEN NSTP TSMULT
       1.00000000  1       1.00000000  PERLEN NSTP TSMULT
       1.00000000  1       1.00000000  PERLEN NSTP TSMULT
       1.00000000  1       1.00000000  PERLEN NSTP TSMULT
       1.00000000  1       1.00000000  PERLEN NSTP TSMULT
       1.00000000  1       1.00000000  PERLEN NSTP TSMULT
       1.00000000  1       1.00000000  PERLEN NSTP TSMULT
       1.00000000  1       1.00000000  PERLEN NSTP TSMULT
       1.00000000  1       1.00000000  PERLEN NSTP TSMULT
       1.00000000  1       1.00000000  PERLEN NSTP TSMULT
       1.00000000  1       1.00000000  PERLEN NSTP TSMULT
       1.00000000  1       1.00000000  PERLEN NSTP TSMULT
       1.00000000  1       1.00000000  PERLEN NSTP TSMULT
       1.00000000  1       1.00000000  PERLEN NSTP TSMULT
       1.00000000  1       1.00000000  PERLEN NSTP TSMULT
       1.00000000  1       1.00000000  PERLEN NSTP TSMULT
       1.00000000  1       1.00000000  PERLEN NSTP TSMULT
       1.00000000  1       1.00000000  PERLEN NSTP TSMULT
       1.00000000  1       1.00000000  PERLEN NSTP TSMULT
       1.00000000  1       1.00000000  PERLEN NSTP TSMULT
       1.00000000  1       1.00000000  PERLEN NSTP TSMULT
       1.00000000  1       1.00000000  PERLEN NSTP TSMULT
       1.00000000  1       1.00000000  PERLEN NSTP TSMULT
       1.00000000  1       1.00000000  PERLEN NSTP TSMULT
       1.00000000  1       1.00000000  PERLEN NSTP TSMULT
       1.00000000  1       1.00000000  PERLEN NSTP TSMULT
       1.00000000  1       1.00000000  PERLEN NSTP TSMULT
       1.00000000  1       1.00000000  PERLEN NSTP TSMULT
       1.00000000  1       1.00000000  PERLEN NSTP TSMULT
       1.00000000  1       1.00000000  PERLEN NSTP TSMULT
       1.00000000  1       1.00000000  PERLEN NSTP TSMULT
       1.00000000  1       1.00000000  PERLEN NSTP TSMULT
       1.00000000  1       1.00000000  PERLEN NSTP TSMULT
       1.00000000  1       1.00000000  PERLEN NSTP TSMULT
       1.00000000  1       1.00000000  PERLEN NSTP TSMULT
       1.00000000  1       1.00000000  PERLEN NSTP TSMULT
       1.00000000  1       1.00000000  PERLEN NSTP TSMULT
       1.00000000  1       1.00000000  PERLEN NSTP TSMULT
       1.00000000  1       1.00000000  PERLEN NSTP TSMULT
       1.00000000  1       1.00000000  PERLEN NSTP TSMULT
       1.00000000  1       1.00000000  PERLEN NSTP TSMULT
       1.00000000  1       1.00000000  PERLEN NSTP TSMULT
       1.00000000  1       1.00000000  PERLEN NSTP TSMULT
       1.00000000  1       1.00000000  PERLEN NSTP TSMULT
       1.00000000  1       1.00000000  PERLEN NSTP TSMULT
       1.00000000  1       1.00000000  PERLEN NSTP TSMULT
       1.00000000  1       1.00000000  PERLEN NSTP TSMULT
       1.00000000  1       1.00000000  PERLEN NSTP TSMULT
       1.00000000  1       1.00000000  PERLEN NSTP TSMULT
       1.00000000  1       1.00000000  PERLEN NSTP TSMULT
       1.00000000  1       1.00000000  PERLEN NSTP TSMULT
       1.00000000  1       1.00000000  PERLEN NSTP TSMULT
       1.00000000  1       1.00000000  PERLEN NSTP TSMULT
       1.00000000  1       1.00000000  PERLEN NSTP TSMULT
       1.00000000  1       1.00000000  PERLEN NSTP TSMULT
       1.00000000  1       1.00000000  PERLEN NSTP TSMULT
       1.00000000  1       1.00000000  PERLEN NSTP TSMULT
       1.00000000  1       1.00000000  PERLEN NSTP TSMULT
       1.00000000  1       1.00000000  PERLEN NSTP TSMULT
       1.00000000  1       1.00000000  PERLEN NSTP TSMULT
       1.00000000  1       1.00000000  PERLEN NSTP TSMULT
       1.00000000  1       1.00000000  PERLEN NSTP TSMULT
       1.00000000  1       1.00000000  PERLEN NSTP TSMULT
       1.00000000  1       1.00000000  PERLEN NSTP TSMULT
       1.00000000  1       1.00000000  PERLEN NSTP TSMULT
       1.00000000  1       1.00000000  PERLEN NSTP TSMULT
       1.00000000  1       1.00000000  PERLEN NSTP TSMULT
       1.00000000  1       1.00000000  PERLEN NSTP TSMULT
       1.00000000  1       1.00000000  PERLEN NSTP TSMULT
       1.00000000  1       1.00000000  PERLEN NSTP TSMULT
       1.00000000  1       1.00000000  PERLEN NSTP TSMULT
       1.00000000  1       1.00000000  PERLEN NSTP TSMULT
       1.00000000  1       1.00000000  PERLEN NSTP TSMULT
       1.00000000  1       1.00000000  PERLEN NSTP TSMULT
       1.00000000  1       1.00000000  PERLEN NSTP TSMULT
       1.00000000  1       1.00000000  PERLEN NSTP TSMULT
       1.00000000  1       1.00000000  PERLEN NSTP TSMULT
       1.00000000  1       1.00000000  PERLEN NSTP TSMULT
       1.00000000  1       1.00000000  PERLEN NSTP TSMULT
       1.00000000  1       1.00000000  PERLEN NSTP TSMULT
       1.00000000  1       1.00000000  PERLEN NSTP TSMULT
       1.00000000  1       1.00000000  PERLEN NSTP TSMULT
       1.00000000  1       1.00000000  PERLEN NSTP TSMULT
       1.00000000  1       1.00000000  PERLEN NSTP TSMULT
       1.00000000  1       1.00000000  PERLEN NSTP TSMULT
       1.00000000  1       1.00000000  PERLEN NSTP TSMULT
       1.00000000  1       1.00000000  PERLEN NSTP TSMULT
       1.00000000  1       1.00000000  PERLEN NSTP TSMULT
       1.00000000  1       1.00000000  PERLEN NSTP TSMULT
       1.00000000  1       1.00000000  PERLEN NSTP TSMULT
       1.00000000  1       1.00000000  PERLEN NSTP TSMULT
       1.00000000  1       1.00000000  PERLEN NSTP TSMULT
       1.00000000  1       1.00000000  PERLEN NSTP TSMULT
       1.00000000  1       1.00000000  PERLEN NSTP TSMULT
       1.00000000  1       1.00000000  PERLEN NSTP TSMULT
       1.00000000  1       1.00000000  PERLEN NSTP TSMULT
       1.00000000  1       1.00000000  PERLEN NSTP TSMULT
       1.00000000  1       1.00000000  PERLEN NSTP TSMULT
       1.00000000  1       1.00000000  PERLEN NSTP TSMULT
       1.00000000  1       1.00000000  PERLEN NSTP TSMULT
       1.00000000  1       1.00000000  PERLEN NSTP TSMULT
       1.00000000  1       1.00000000  PERLEN NSTP TSMULT
       1.00000000  1       1.00000000  PERLEN NSTP TSMULT
       1.00000000  1       1.00000000  PERLEN NSTP TSMULT
       1.00000000  1       1.00000000  PERLEN NSTP TSMULT
       1.00000000  1       1.00000000  PERLEN NSTP TSMULT
       1.00000000  1       1.00000000  PERLEN NSTP TSMULT
       1.00000000  1       1.00000000  PERLEN NSTP TSMULT
       1.00000000  1       1.00000000  PERLEN NSTP TSMULT
       1.00000000  1       1.00000000  PERLEN NSTP TSMULT
       1.00000000  1       1.00000000  PERLEN NSTP TSMULT
       1.00000000  1       1.00000000  PERLEN NSTP TSMULT
       1.00000000  1       1.00000000  PERLEN NSTP TSMULT
       1.00000000  1       1.00000000  PERLEN NSTP TSMULT
       1.00000000  1       1.00000000  PERLEN NSTP TSMULT
       1.00000000  1       1.00000000  PERLEN NSTP TSMULT
       1.00000000  1       1.00000000  PERLEN NSTP TSMULT
       1.00000000  1       1.00000000  PERLEN NSTP TSMULT
       1.00000000  1       1.00000000  PERLEN NSTP TSMULT
       1.00000000  1       1.00000000  PERLEN NSTP TSMULT
       1.00000000  1       1.00000000  PERLEN NSTP TSMULT
       1.00000000  1       1.00000000  PERLEN NSTP TSMULT
       1.00000000  1       1.00000000  PERLEN NSTP TSMULT
       1.00000000  1       1.00000000  PERLEN NSTP TSMULT
       1.00000000  1       1.00000000  PERLEN NSTP TSMULT
       1.00000000  1       1.00000000  PERLEN NSTP TSMULT
       1.00000000  1       1.00000000  PERLEN NSTP TSMULT
       1.00000000  1       1.00000000  PERLEN NSTP TSMULT
       1.00000000  1       1.00000000  PERLEN NSTP TSMULT
       1.00000000  1       1.00000000  PERLEN NSTP TSMULT
       1.00000000  1       1.00000000  PERLEN NSTP TSMULT
       1.00000000  1       1.00000000  PERLEN NSTP TSMULT
       1.00000000  1       1.00000000  PERLEN NSTP TSMULT
       1.00000000  1       1.00000000  PERLEN NSTP TSMULT
       1.00000000  1       1.00000000  PERLEN NSTP TSMULT
       1.00000000  1       1.00000000  PERLEN NSTP TSMULT
       1.00000000  1       1.00000000  PERLEN NSTP TSMULT
       1.00000000  1       1.00000000  PERLEN NSTP TSMULT
       1.00000000  1       1.00000000  PERLEN NSTP TSMULT
       1.00000000  1       1.00000000  PERLEN NSTP TSMULT
       1.00000000  1       1.00000000  PERLEN NSTP TSMULT
       1.00000000  1       1.00000000  PERLEN NSTP TSMULT
       1.00000000  1       1.00000000  PERLEN NSTP TSMULT
       1.00000000  1       1.00000000  PERLEN NSTP TSMULT
       1.00000000  1       1.00000000  PERLEN NSTP TSMULT
       1.00000000  1       1.00000000  PERLEN NSTP TSMULT
       1.00000000  1       1.00000000  PERLEN NSTP TSMULT
       1.00000000  1       1.00000000  PERLEN NSTP TSMULT
       1.00000000  1       1.00000000  PERLEN NSTP TSMULT
       1.00000000  1       1.00000000  PERLEN NSTP TSMULT
       1.00000000  1       1.00000000  PERLEN NSTP TSMULT
       1.00000000  1       1.00000000  PERLEN NSTP TSMULT
       1.00000000  1       1.00000000  PERLEN NSTP TSMULT
       1.00000000  1       1.00000000  PERLEN NSTP TSMULT
       1.00000000  1       1.00000000  PERLEN NSTP TSMULT
       1.00000000  1       1.00000000  PERLEN NSTP TSMULT
       1.00000000  1       1.00000000  PERLEN NSTP TSMULT
       1.00000000  1       1.00000000  PERLEN NSTP TSMULT
       1.00000000  1       1.00000000  PERLEN NSTP TSMULT
       1.00000000  1       1.00000000  PERLEN NSTP TSMULT
       1.00000000  1       1.00000000  PERLEN NSTP TSMULT
       1.00000000  1       1.00000000  PERLEN NSTP TSMULT
       1.00000000  1       1.00000000  PERLEN NSTP TSMULT
       1.00000000  1       1.00000000  PERLEN NSTP TSMULT
       1.00000000  1       1.00000000  PERLEN NSTP TSMULT
       1.00000000  1       1.00000000  PERLEN NSTP TSMULT
       1.00000000  1       1.00000000  PERLEN NSTP TSMULT
       1.00000000  1       1.00000000  PERLEN NSTP TSMULT
       1.00000000  1       1.00000000  PERLEN NSTP TSMULT
       1.00000000  1       1.00000000  PERLEN NSTP TSMULT
       1.00000000  1       1.00000000  PERLEN NSTP TSMULT
       1.00000000  1       1.00000000  PERLEN NSTP TSMULT
       1.00000000  1       1.00000000  PERLEN NSTP TSMULT
       1.00000000  1       1.00000000  PERLEN NSTP TSMULT
       1.00000000  1       1.00000000  PERLEN NSTP TSMULT
       1.00000000  1       1.00000000  PERLEN NSTP TSMULT
       1.00000000  1       1.00000000  PERLEN NSTP TSMULT
       1.00000000  1       1.00000000  PERLEN NSTP TSMULT
       1.00000000  1       1.00000000  PERLEN NSTP TSMULT
       1.00000000  1       1.00000000  PERLEN NSTP TSMULT
       1.00000000  1       1.00000000  PERLEN NSTP TSMULT
       1.00000000  1       1.00000000  PERLEN NSTP TSMULT
       1.00000000  1       1.00000000  PERLEN NSTP TSMULT
       1.00000000  1       1.00000000  PERLEN NSTP TSMULT
       1.00000000  1       1.00000000  PERLEN NSTP TSMULT
       1.00000000  1       1.00000000  PERLEN NSTP TSMULT
       1.00000000  1       1.00000000  PERLEN NSTP TSMULT
       1.00000000  1       1.00000000  PERLEN NSTP TSMULT
       1.00000000  1       1.00000000  PERLEN NSTP TSMULT
       1.00000000  1       1.00000000  PERLEN NSTP TSMULT
       1.00000000  1       1.00000000  PERLEN NSTP TSMULT
       1.00000000  1       1.00000000  PERLEN NSTP TSMULT
       1.00000000  1       1.00000000  PERLEN NSTP TSMULT
       1.00000000  1       1.00000000  PERLEN NSTP TSMULT
       1.00000000  1       1.00000000  PERLEN NSTP TSMULT
       1.00000000  1       1.00000000  PERLEN NSTP TSMULT
       1.00000000  1       1.00000000  PERLEN NSTP TSMULT
       1.00000000  1       1.00000000  PERLEN NSTP TSMULT
       1.00000000  1       1.00000000  PERLEN NSTP TSMULT
       1.00000000  1       1.00000000  PERLEN NSTP TSMULT
       1.00000000  1       1.00000000  PERLEN NSTP TSMULT
       1.00000000  1       1.00000000  PERLEN NSTP TSMULT
       1.00000000  1       1.00000000  PERLEN NSTP TSMULT
       1.00000000  1       1.00000000  PERLEN NSTP TSMULT
       1.00000000  1       1.00000000  PERLEN NSTP TSMULT
       1.00000000  1       1.00000000  PERLEN NSTP TSMULT
       1.00000000  1       1.00000000  PERLEN NSTP TSMULT
       1.00000000  1       1.00000000  PERLEN NSTP TSMULT
       1.00000000  1       1.00000000  PERLEN NSTP TSMULT
       1.00000000  1       1.00000000  PERLEN NSTP TSMULT
       1.00000000  1       1.00000000  PERLEN NSTP TSMULT
       1.00000000  1       1.00000000  PERLEN NSTP TSMULT
       1.00000000  1       1.00000000  PERLEN NSTP TSMULT
       1.00000000  1       1.00000000  PERLEN NSTP TSMULT
       1.00000000  1       1.00000000  PERLEN NSTP TSMULT
       1.00000000  1       1.00000000  PERLEN NSTP TSMULT
       1.00000000  1       1.00000000  PERLEN NSTP TSMULT
       1.00000000  1       1.00000000  PERLEN NSTP TSMULT
       1.00000000  1       1.00000000  PERLEN NSTP TSMULT
       1.00000000  1       1.00000000  PERLEN NSTP TSMULT
       1.00000000  1       1.00000000  PERLEN NSTP TSMULT
       1.00000000  1       1.00000000  PERLEN NSTP TSMULT
       1.00000000  1       1.00000000  PERLEN NSTP TSMULT
       1.00000000  1       1.00000000  PERLEN NSTP TSMULT
       1.00000000  1       1.00000000  PERLEN NSTP TSMULT
       1.00000000  1       1.00000000  PERLEN NSTP TSMULT
       1.00000000  1       1.00000000  PERLEN NSTP TSMULT
       1.00000000  1       1.00000000  PERLEN NSTP TSMULT
       1.00000000  1       1.00000000  PERLEN NSTP TSMULT
       1.00000000  1       1.00000000  PERLEN NSTP TSMULT
       1.00000000  1       1.00000000  PERLEN NSTP TSMULT
       1.00000000  1       1.00000000  PERLEN NSTP TSMULT
       1.00000000  1       1.00000000  PERLEN NSTP TSMULT
       1.00000000  1       1.00000000  PERLEN NSTP TSMULT
       1.00000000  1       1.00000000  PERLEN NSTP TSMULT
       1.00000000  1       1.00000000  PERLEN NSTP TSMULT
       1.00000000  1       1.00000000  PERLEN NSTP TSMULT
       1.00000000  1       1.00000000  PERLEN NSTP TSMULT
       1.00000000  1       1.00000000  PERLEN NSTP TSMULT
       1.00000000  1       1.00000000  PERLEN NSTP TSMULT
       1.00000000  1       1.00000000  PERLEN NSTP TSMULT
       1.00000000  1       1.00000000  PERLEN NSTP TSMULT
       1.00000000  1       1.00000000  PERLEN NSTP TSMULT
       1.00000000  1       1.00000000  PERLEN NSTP TSMULT
       1.00000000  1       1.00000000  PERLEN NSTP TSMULT
       1.00000000  1       1.00000000  PERLEN NSTP TSMULT
       1.00000000  1       1.00000000  PERLEN NSTP TSMULT
       1.00000000  1       1.00000000  PERLEN NSTP TSMULT
       1.00000000  1       1.00000000  PERLEN NSTP TSMULT
       1.00000000  1       1.00000000  PERLEN NSTP TSMULT
       1.00000000  1       1.00000000  PERLEN NSTP TSMULT
       1.00000000  1       1.00000000  PERLEN NSTP TSMULT
       1.00000000  1       1.00000000  PERLEN NSTP TSMULT
       1.00000000  1       1.00000000  PERLEN NSTP TSMULT
       1.00000000  1       1.00000000  PERLEN NSTP TSMULT
       1.00000000  1       1.00000000  PERLEN NSTP TSMULT
       1.00000000  1       1.00000000  PERLEN NSTP TSMULT
       1.00000000  1       1.00000000  PERLEN NSTP TSMULT
       1.00000000  1       1.00000000  PERLEN NSTP TSMULT
       1.00000000  1       1.00000000  PERLEN NSTP TSMULT
       1.00000000  1       1.00000000  PERLEN NSTP TSMULT
       1.00000000  1       1.00000000  PERLEN NSTP TSMULT
       1.00000000  1       1.00000000  PERLEN NSTP TSMULT
       1.00000000  1       1.00000000  PERLEN NSTP TSMULT
       1.00000000  1       1.00000000  PERLEN NSTP TSMULT
       1.00000000  1       1.00000000  PERLEN NSTP TSMULT
       1.00000000  1       1.00000000  PERLEN NSTP TSMULT
       1.00000000  1       1.00000000  PERLEN NSTP TSMULT
       1.00000000  1       1.00000000  PERLEN NSTP TSMULT
       1.00000000  1       1.00000000  PERLEN NSTP TSMULT
       1.00000000  1       1.00000000  PERLEN NSTP TSMULT
       1.00000000  1       1.00000000  PERLEN NSTP TSMULT
       1.00000000  1       1.00000000  PERLEN NSTP TSMULT
       1.00000000  1       1.00000000  PERLEN NSTP TSMULT
       1.00000000  1       1.00000000  PERLEN NSTP TSMULT
       1.00000000  1       1.00000000  PERLEN NSTP TSMULT
       1.00000000  1       1.00000000  PERLEN NSTP TSMULT
       1.00000000  1       1.00000000  PERLEN NSTP TSMULT
       1.00000000  1       1.00000000  PERLEN NSTP TSMULT
       1.00000000  1       1.00000000  PERLEN NSTP TSMULT
       1.00000000  1       1.00000000  PERLEN NSTP TSMULT
       1.00000000  1       1.00000000  PERLEN NSTP TSMULT
       1.00000000  1       1.00000000  PERLEN NSTP TSMULT
       1.00000000  1       1.00000000  PERLEN NSTP TSMULT
       1.00000000  1       1.00000000  PERLEN NSTP TSMULT
       1.00000000  1       1.00000000  PERLEN NSTP TSMULT
       1.00000000  1       1.00000000  PERLEN NSTP TSMULT
       1.00000000  1       1.00000000  PERLEN NSTP TSMULT
       1.00000000  1       1.00000000  PERLEN NSTP TSMULT
       1.00000000  1       1.00000000  PERLEN NSTP TSMULT
       1.00000000  1       1.00000000  PERLEN NSTP TSMULT
       1.00000000  1       1.00000000  PERLEN NSTP TSMULT
       1.00000000  1       1.00000000  PERLEN NSTP TSMULT
       1.00000000  1       1.00000000  PERLEN NSTP TSMULT
       1.00000000  1       1.00000000  PERLEN NSTP TSMULT
       1.00000000  1       1.00000000  PERLEN NSTP TSMULT
       1.00000000  1       1.00000000  PERLEN NSTP TSMULT
       1.00000000  1       1.00000000  PERLEN NSTP TSMULT
       1.00000000  1       1.00000000  PERLEN NSTP TSMULT
       1.00000000  1       1.00000000  PERLEN NSTP TSMULT
       1.00000000  1       1.00000000  PERLEN NSTP TSMULT
       1.00000000  1       1.00000000  PERLEN NSTP TSMULT
       1.00000000  1       1.00000000  PERLEN NSTP TSMULT
       1.00000000  1       1.00000000  PERLEN NSTP TSMULT
       1.00000000  1       1.00000000  PERLEN NSTP TSMULT
       1.00000000  1       1.00000000  PERLEN NSTP TSMULT
       1.00000000  1       1.00000000  PERLEN NSTP TSMULT
       1.00000000  1       1.00000000  PERLEN NSTP TSMULT
       1.00000000  1       1.00000000  PERLEN NSTP TSMULT
       1.00000000  1       1.00000000  PERLEN NSTP TSMULT
       1.00000000  1       1.00000000  PERLEN NSTP TSMULT
       1.00000000  1       1.00000000  PERLEN NSTP TSMULT
       1.00000000  1       1.00000000  PERLEN NSTP TSMULT
       1.00000000  1       1.00000000  PERLEN NSTP TSMULT
       1.00000000  1       1.00000000  PERLEN NSTP TSMULT
       1.00000000  1       1.00000000  PERLEN NSTP TSMULT
       1.00000000  1       1.00000000  PERLEN NSTP TSMULT
       1.00000000  1       1.00000000  PERLEN NSTP TSMULT
       1.00000000  1       1.00000000  PERLEN NSTP TSMULT
       1.00000000  1       1.00000000  PERLEN NSTP TSMULT
       1.00000000  1       1.00000000  PERLEN NSTP TSMULT
       1.00000000  1       1.00000000  PERLEN NSTP TSMULT
       1.00000000  1       1.00000000  PERLEN NSTP TSMULT
       1.00000000  1       1.00000000  PERLEN NSTP TSMULT
       1.00000000  1       1.00000000  PERLEN NSTP TSMULT
       1.00000000  1       1.00000000  PERLEN NSTP TSMULT
       1.00000000  1       1.00000000  PERLEN NSTP TSMULT
       1.00000000  1       1.00000000  PERLEN NSTP TSMULT
       1.00000000  1       1.00000000  PERLEN NSTP TSMULT
       1.00000000  1       1.00000000  PERLEN NSTP TSMULT
       1.00000000  1       1.00000000  PERLEN NSTP TSMULT
       1.00000000  1       1.00000000  PERLEN NSTP TSMULT
       1.00000000  1       1.00000000  PERLEN NSTP TSMULT
       1.00000000  1       1.00000000  PERLEN NSTP TSMULT
       1.00000000  1       1.00000000  PERLEN NSTP TSMULT
       1.00000000  1       1.00000000  PERLEN NSTP TSMULT
       1.00000000  1       1.00000000  PERLEN NSTP TSMULT
       1.00000000  1       1.00000000  PERLEN NSTP TSMULT
       1.00000000  1       1.00000000  PERLEN NSTP TSMULT
       1.00000000  1       1.00000000  PERLEN NSTP TSMULT
       1.00000000  1       1.00000000  PERLEN NSTP TSMULT
       1.00000000  1       1.00000000  PERLEN NSTP TSMULT
       1.00000000  1       1.00000000  PERLEN NSTP TSMULT
       1.00000000  1       1.00000000  PERLEN NSTP TSMULT
       1.00000000  1       1.00000000  PERLEN NSTP TSMULT
       1.00000000  1       1.00000000  PERLEN NSTP TSMULT
       1.00000000  1       1.00000000  PERLEN NSTP TSMULT
       1.00000000  1       1.00000000  PERLEN NSTP TSMULT
       1.00000000  1       1.00000000  PERLEN NSTP TSMULT
       1.00000000  1       1.00000000  PERLEN NSTP TSMULT
       1.00000000  1       1.00000000  PERLEN NSTP TSMULT
       1.00000000  1       1.00000000  PERLEN NSTP TSMULT
       1.00000000  1       1.00000000  PERLEN NSTP TSMULT
       1.00000000  1       1.00000000  PERLEN NSTP TSMULT
       1.00000000  1       1.00000000  PERLEN NSTP TSMULT
       1.00000000  1       1.00000000  PERLEN NSTP TSMULT
       1.00000000  1       1.00000000  PERLEN NSTP TSMULT
       1.00000000  1       1.00000000  PERLEN NSTP TSMULT
       1.00000000  1       1.00000000  PERLEN NSTP TSMULT
       1.00000000  1       1.00000000  PERLEN NSTP TSMULT
       1.00000000  1       1.00000000  PERLEN NSTP TSMULT
       1.00000000  1       1.00000000  PERLEN NSTP TSMULT
       1.00000000  1       1.00000000  PERLEN NSTP TSMULT
       1.00000000  1       1.00000000  PERLEN NSTP TSMULT
       1.00000000  1       1.00000000  PERLEN NSTP TSMULT
       1.00000000  1       1.00000000  PERLEN NSTP TSMULT
       1.00000000  1       1.00000000  PERLEN NSTP TSMULT
       1.00000000  1       1.00000000  PERLEN NSTP TSMULT
       1.00000000  1       1.00000000  PERLEN NSTP TSMULT
       1.00000000  1       1.00000000  PERLEN NSTP TSMULT
       1.00000000  1       1.00000000  PERLEN NSTP TSMULT
       1.00000000  1       1.00000000  PERLEN NSTP TSMULT
       1.00000000  1       1.00000000  PERLEN NSTP TSMULT
       1.00000000  1       1.00000000  PERLEN NSTP TSMULT
       1.00000000  1       1.00000000  PERLEN NSTP TSMULT
       1.00000000  1       1.00000000  PERLEN NSTP TSMULT
       1.00000000  1       1.00000000  PERLEN NSTP TSMULT
       1.00000000  1       1.00000000  PERLEN NSTP TSMULT
       1.00000000  1       1.00000000  PERLEN NSTP TSMULT
       1.00000000  1       1.00000000  PERLEN NSTP TSMULT
       1.00000000  1       1.00000000  PERLEN NSTP TSMULT
       1.00000000  1       1.00000000  PERLEN NSTP TSMULT
       1.00000000  1       1.00000000  PERLEN NSTP TSMULT
       1.00000000  1       1.00000000  PERLEN NSTP TSMULT
       1.00000000  1       1.00000000  PERLEN NSTP TSMULT
       1.00000000  1       1.00000000  PERLEN NSTP TSMULT
       1.00000000  1       1.00000000  PERLEN NSTP TSMULT
       1.00000000  1       1.00000000  PERLEN NSTP TSMULT
       1.00000000  1       1.00000000  PERLEN NSTP TSMULT
       1.00000000  1       1.00000000  PERLEN NSTP TSMULT
       1.00000000  1       1.00000000  PERLEN NSTP TSMULT
       1.00000000  1       1.00000000  PERLEN NSTP TSMULT
       1.00000000  1       1.00000000  PERLEN NSTP TSMULT
       1.00000000  1       1.00000000  PERLEN NSTP TSMULT
       1.00000000  1       1.00000000  PERLEN NSTP TSMULT
       1.00000000  1       1.00000000  PERLEN NSTP TSMULT
       1.00000000  1       1.00000000  PERLEN NSTP TSMULT
       1.00000000  1       1.00000000  PERLEN NSTP TSMULT
       1.00000000  1       1.00000000  PERLEN NSTP TSMULT
       1.00000000  1       1.00000000  PERLEN NSTP TSMULT
       1.00000000  1       1.00000000  PERLEN NSTP TSMULT
       1.00000000  1       1.00000000  PERLEN NSTP TSMULT
       1.00000000  1       1.00000000  PERLEN NSTP TSMULT