# SFR package for  MODFLOW-NWT, generated by Flopy.
REACHINPUT
120 120 0 0 86400.00000000 0.00010000 50 60 1 
1 1 47 1 1 83.333336 34.0 5e-05 1.0 0.1
1 2 47 2 1 83.333336 33.9958 5e-05 1.0 0.1
1 3 47 3 1 83.333336 33.991596 5e-05 1.0 0.1
1 4 47 4 1 83.333336 33.987396 5e-05 1.0 0.1
1 5 47 5 1 83.333336 33.983192 5e-05 1.0 0.1
1 6 47 6 1 83.333336 33.978992 5e-05 1.0 0.1
1 7 47 7 1 83.333336 33.97479 5e-05 1.0 0.1
1 8 47 8 1 83.333336 33.97059 5e-05 1.0 0.1
1 9 47 9 1 83.333336 33.966385 5e-05 1.0 0.1
1 10 47 10 1 83.333336 33.962185 5e-05 1.0 0.1
1 11 47 11 1 83.333336 33.957985 5e-05 1.0 0.1
1 12 47 12 1 83.333336 33.95378 5e-05 1.0 0.1
1 13 47 13 1 83.333336 33.94958 5e-05 1.0 0.1
1 14 47 14 1 83.333336 33.945377 5e-05 1.0 0.1
1 15 47 15 1 83.333336 33.941177 5e-05 1.0 0.1
1 16 47 16 1 83.333336 33.936974 5e-05 1.0 0.1
1 17 47 17 1 83.333336 33.932774 5e-05 1.0 0.1
1 18 47 18 1 83.333336 33.92857 5e-05 1.0 0.1
1 19 47 19 1 83.333336 33.92437 5e-05 1.0 0.1
1 20 47 20 1 83.333336 33.92017 5e-05 1.0 0.1
1 21 47 21 1 83.333336 33.915966 5e-05 1.0 0.1
1 22 47 22 1 83.333336 33.911766 5e-05 1.0 0.1
1 23 47 23 1 83.333336 33.907562 5e-05 1.0 0.1
1 24 47 24 1 83.333336 33.903362 5e-05 1.0 0.1
1 25 47 25 1 83.333336 33.89916 5e-05 1.0 0.1
1 26 47 26 1 83.333336 33.89496 5e-05 1.0 0.1
1 27 47 27 1 83.333336 33.890755 5e-05 1.0 0.1
1 28 47 28 1 83.333336 33.886555 5e-05 1.0 0.1
1 29 47 29 1 83.333336 33.882355 5e-05 1.0 0.1
1 30 47 30 1 83.333336 33.87815 5e-05 1.0 0.1
1 31 47 31 1 83.333336 33.87395 5e-05 1.0 0.1
1 32 47 32 1 83.333336 33.869747 5e-05 1.0 0.1
1 33 47 33 1 83.333336 33.865547 5e-05 1.0 0.1
1 34 47 34 1 83.333336 33.861343 5e-05 1.0 0.1
1 35 47 35 1 83.333336 33.857143 5e-05 1.0 0.1
1 36 47 36 1 83.333336 33.85294 5e-05 1.0 0.1
1 37 47 37 1 83.333336 33.84874 5e-05 1.0 0.1
1 38 47 38 1 83.333336 33.84454 5e-05 1.0 0.1
1 39 47 39 1 83.333336 33.840336 5e-05 1.0 0.1
1 40 47 40 1 83.333336 33.836136 5e-05 1.0 0.1
1 41 47 41 1 83.333336 33.831932 5e-05 1.0 0.1
1 42 47 42 1 83.333336 33.827732 5e-05 1.0 0.1
1 43 47 43 1 83.333336 33.82353 5e-05 1.0 0.1
1 44 47 44 1 83.333336 33.81933 5e-05 1.0 0.1
1 45 47 45 1 83.333336 33.815125 5e-05 1.0 0.1
1 46 47 46 1 83.333336 33.810925 5e-05 1.0 0.1
1 47 47 47 1 83.333336 33.806725 5e-05 1.0 0.1
1 48 47 48 1 83.333336 33.80252 5e-05 1.0 0.1
1 49 47 49 1 83.333336 33.79832 5e-05 1.0 0.1
1 50 47 50 1 83.333336 33.794117 5e-05 1.0 0.1
1 51 47 51 1 83.333336 33.789917 5e-05 1.0 0.1
1 52 47 52 1 83.333336 33.785713 5e-05 1.0 0.1
1 53 47 53 1 83.333336 33.781513 5e-05 1.0 0.1
1 54 47 54 1 83.333336 33.77731 5e-05 1.0 0.1
1 55 47 55 1 83.333336 33.77311 5e-05 1.0 0.1
1 56 47 56 1 83.333336 33.76891 5e-05 1.0 0.1
1 57 47 57 1 83.333336 33.764706 5e-05 1.0 0.1
1 58 47 58 1 83.333336 33.760506 5e-05 1.0 0.1
1 59 47 59 1 83.333336 33.7563 5e-05 1.0 0.1
1 60 47 60 1 83.333336 33.7521 5e-05 1.0 0.1
1 61 47 61 1 83.333336 33.7479 5e-05 1.0 0.1
1 62 47 62 1 83.333336 33.7437 5e-05 1.0 0.1
1 63 47 63 1 83.333336 33.739494 5e-05 1.0 0.1
1 64 47 64 1 83.333336 33.735294 5e-05 1.0 0.1
1 65 47 65 1 83.333336 33.73109 5e-05 1.0 0.1
1 66 47 66 1 83.333336 33.72689 5e-05 1.0 0.1
1 67 47 67 1 83.333336 33.72269 5e-05 1.0 0.1
1 68 47 68 1 83.333336 33.718487 5e-05 1.0 0.1
1 69 47 69 1 83.333336 33.714287 5e-05 1.0 0.1
1 70 47 70 1 83.333336 33.710083 5e-05 1.0 0.1
1 71 47 71 1 83.333336 33.705883 5e-05 1.0 0.1
1 72 47 72 1 83.333336 33.70168 5e-05 1.0 0.1
1 73 47 73 1 83.333336 33.69748 5e-05 1.0 0.1
1 74 47 74 1 83.333336 33.693275 5e-05 1.0 0.1
1 75 47 75 1 83.333336 33.689075 5e-05 1.0 0.1
1 76 47 76 1 83.333336 33.684875 5e-05 1.0 0.1
1 77 47 77 1 83.333336 33.68067 5e-05 1.0 0.1
1 78 47 78 1 83.333336 33.67647 5e-05 1.0 0.1
1 79 47 79 1 83.333336 33.672268 5e-05 1.0 0.1
1 80 47 80 1 83.333336 33.668068 5e-05 1.0 0.1
1 81 47 81 1 83.333336 33.663864 5e-05 1.0 0.1
1 82 47 82 1 83.333336 33.659664 5e-05 1.0 0.1
1 83 47 83 1 83.333336 33.65546 5e-05 1.0 0.1
1 84 47 84 1 83.333336 33.65126 5e-05 1.0 0.1
1 85 47 85 1 83.333336 33.64706 5e-05 1.0 0.1
1 86 47 86 1 83.333336 33.642857 5e-05 1.0 0.1
1 87 47 87 1 83.333336 33.638657 5e-05 1.0 0.1
1 88 47 88 1 83.333336 33.634453 5e-05 1.0 0.1
1 89 47 89 1 83.333336 33.630253 5e-05 1.0 0.1
1 90 47 90 1 83.333336 33.62605 5e-05 1.0 0.1
1 91 47 91 1 83.333336 33.62185 5e-05 1.0 0.1
1 92 47 92 1 83.333336 33.617645 5e-05 1.0 0.1
1 93 47 93 1 83.333336 33.613445 5e-05 1.0 0.1
1 94 47 94 1 83.333336 33.609245 5e-05 1.0 0.1
1 95 47 95 1 83.333336 33.60504 5e-05 1.0 0.1
1 96 47 96 1 83.333336 33.60084 5e-05 1.0 0.1
1 97 47 97 1 83.333336 33.596638 5e-05 1.0 0.1
1 98 47 98 1 83.333336 33.592438 5e-05 1.0 0.1
1 99 47 99 1 83.333336 33.588234 5e-05 1.0 0.1
1 100 47 100 1 83.333336 33.584034 5e-05 1.0 0.1
1 101 47 101 1 83.333336 33.57983 5e-05 1.0 0.1
1 102 47 102 1 83.333336 33.57563 5e-05 1.0 0.1
1 103 47 103 1 83.333336 33.57143 5e-05 1.0 0.1
1 104 47 104 1 83.333336 33.567226 5e-05 1.0 0.1
1 105 47 105 1 83.333336 33.563026 5e-05 1.0 0.1
1 106 47 106 1 83.333336 33.558823 5e-05 1.0 0.1
1 107 47 107 1 83.333336 33.554623 5e-05 1.0 0.1
1 108 47 108 1 83.333336 33.55042 5e-05 1.0 0.1
1 109 47 109 1 83.333336 33.54622 5e-05 1.0 0.1
1 110 47 110 1 83.333336 33.542015 5e-05 1.0 0.1
1 111 47 111 1 83.333336 33.537815 5e-05 1.0 0.1
1 112 47 112 1 83.333336 33.533615 5e-05 1.0 0.1
1 113 47 113 1 83.333336 33.52941 5e-05 1.0 0.1
1 114 47 114 1 83.333336 33.52521 5e-05 1.0 0.1
1 115 47 115 1 83.333336 33.521008 5e-05 1.0 0.1
1 116 47 116 1 83.333336 33.516808 5e-05 1.0 0.1
1 117 47 117 1 83.333336 33.512604 5e-05 1.0 0.1
1 118 47 118 1 83.333336 33.508404 5e-05 1.0 0.1
1 119 47 119 1 83.333336 33.5042 5e-05 1.0 0.1
1 120 47 120 1 83.333336 33.501 5e-05 1.0 0.1
120 0 0 0
1 1 2 0 500.0 0 0 0 0.03 
5.0 
5.0 
2 1 3 0 0 0 0 0 0.03 
5.0 
5.0 
3 1 4 0 0 0 0 0 0.03 
5.0 
5.0 
4 1 5 0 0 0 0 0 0.03 
5.0 
5.0 
5 1 6 0 0 0 0 0 0.03 
5.0 
5.0 
6 1 7 0 0 0 0 0 0.03 
5.0 
5.0 
7 1 8 0 0 0 0 0 0.03 
5.0 
5.0 
8 1 9 0 0 0 0 0 0.03 
5.0 
5.0 
9 1 10 0 0 0 0 0 0.03 
5.0 
5.0 
10 1 11 0 0 0 0 0 0.03 
5.0 
5.0 
11 1 12 0 0 0 0 0 0.03 
5.0 
5.0 
12 1 13 0 0 0 0 0 0.03 
5.0 
5.0 
13 1 14 0 0 0 0 0 0.03 
5.0 
5.0 
14 1 15 0 0 0 0 0 0.03 
5.0 
5.0 
15 1 16 0 0 0 0 0 0.03 
5.0 
5.0 
16 1 17 0 0 0 0 0 0.03 
5.0 
5.0 
17 1 18 0 0 0 0 0 0.03 
5.0 
5.0 
18 1 19 0 0 0 0 0 0.03 
5.0 
5.0 
19 1 20 0 0 0 0 0 0.03 
5.0 
5.0 
20 1 21 0 0 0 0 0 0.03 
5.0 
5.0 
21 1 22 0 0 0 0 0 0.03 
5.0 
5.0 
22 1 23 0 0 0 0 0 0.03 
5.0 
5.0 
23 1 24 0 0 0 0 0 0.03 
5.0 
5.0 
24 1 25 0 0 0 0 0 0.03 
5.0 
5.0 
25 1 26 0 0 0 0 0 0.03 
5.0 
5.0 
26 1 27 0 0 0 0 0 0.03 
5.0 
5.0 
27 1 28 0 0 0 0 0 0.03 
5.0 
5.0 
28 1 29 0 0 0 0 0 0.03 
5.0 
5.0 
29 1 30 0 0 0 0 0 0.03 
5.0 
5.0 
30 1 31 0 0 0 0 0 0.03 
5.0 
5.0 
31 1 32 0 0 0 0 0 0.03 
5.0 
5.0 
32 1 33 0 0 0 0 0 0.03 
5.0 
5.0 
33 1 34 0 0 0 0 0 0.03 
5.0 
5.0 
34 1 35 0 0 0 0 0 0.03 
5.0 
5.0 
35 1 36 0 0 0 0 0 0.03 
5.0 
5.0 
36 1 37 0 0 0 0 0 0.03 
5.0 
5.0 
37 1 38 0 0 0 0 0 0.03 
5.0 
5.0 
38 1 39 0 0 0 0 0 0.03 
5.0 
5.0 
39 1 40 0 0 0 0 0 0.03 
5.0 
5.0 
40 1 41 0 0 0 0 0 0.03 
5.0 
5.0 
41 1 42 0 0 0 0 0 0.03 
5.0 
5.0 
42 1 43 0 0 0 0 0 0.03 
5.0 
5.0 
43 1 44 0 0 0 0 0 0.03 
5.0 
5.0 
44 1 45 0 0 0 0 0 0.03 
5.0 
5.0 
45 1 46 0 0 0 0 0 0.03 
5.0 
5.0 
46 1 47 0 0 0 0 0 0.03 
5.0 
5.0 
47 1 48 0 0 0 0 0 0.03 
5.0 
5.0 
48 1 49 0 0 0 0 0 0.03 
5.0 
5.0 
49 1 50 0 0 0 0 0 0.03 
5.0 
5.0 
50 1 51 0 0 0 0 0 0.03 
5.0 
5.0 
51 1 52 0 0 0 0 0 0.03 
5.0 
5.0 
52 1 53 0 0 0 0 0 0.03 
5.0 
5.0 
53 1 54 0 0 0 0 0 0.03 
5.0 
5.0 
54 1 55 0 0 0 0 0 0.03 
5.0 
5.0 
55 1 56 0 0 0 0 0 0.03 
5.0 
5.0 
56 1 57 0 0 0 0 0 0.03 
5.0 
5.0 
57 1 58 0 0 0 0 0 0.03 
5.0 
5.0 
58 1 59 0 0 0 0 0 0.03 
5.0 
5.0 
59 1 60 0 0 0 0 0 0.03 
5.0 
5.0 
60 1 61 0 0 0 0 0 0.03 
5.0 
5.0 
61 1 62 0 0 0 0 0 0.03 
5.0 
5.0 
62 1 63 0 0 0 0 0 0.03 
5.0 
5.0 
63 1 64 0 0 0 0 0 0.03 
5.0 
5.0 
64 1 65 0 0 0 0 0 0.03 
5.0 
5.0 
65 1 66 0 0 0 0 0 0.03 
5.0 
5.0 
66 1 67 0 0 0 0 0 0.03 
5.0 
5.0 
67 1 68 0 0 0 0 0 0.03 
5.0 
5.0 
68 1 69 0 0 0 0 0 0.03 
5.0 
5.0 
69 1 70 0 0 0 0 0 0.03 
5.0 
5.0 
70 1 71 0 0 0 0 0 0.03 
5.0 
5.0 
71 1 72 0 0 0 0 0 0.03 
5.0 
5.0 
72 1 73 0 0 0 0 0 0.03 
5.0 
5.0 
73 1 74 0 0 0 0 0 0.03 
5.0 
5.0 
74 1 75 0 0 0 0 0 0.03 
5.0 
5.0 
75 1 76 0 0 0 0 0 0.03 
5.0 
5.0 
76 1 77 0 0 0 0 0 0.03 
5.0 
5.0 
77 1 78 0 0 0 0 0 0.03 
5.0 
5.0 
78 1 79 0 0 0 0 0 0.03 
5.0 
5.0 
79 1 80 0 0 0 0 0 0.03 
5.0 
5.0 
80 1 81 0 0 0 0 0 0.03 
5.0 
5.0 
81 1 82 0 0 0 0 0 0.03 
5.0 
5.0 
82 1 83 0 0 0 0 0 0.03 
5.0 
5.0 
83 1 84 0 0 0 0 0 0.03 
5.0 
5.0 
84 1 85 0 0 0 0 0 0.03 
5.0 
5.0 
85 1 86 0 0 0 0 0 0.03 
5.0 
5.0 
86 1 87 0 0 0 0 0 0.03 
5.0 
5.0 
87 1 88 0 0 0 0 0 0.03 
5.0 
5.0 
88 1 89 0 0 0 0 0 0.03 
5.0 
5.0 
89 1 90 0 0 0 0 0 0.03 
5.0 
5.0 
90 1 91 0 0 0 0 0 0.03 
5.0 
5.0 
91 1 92 0 0 0 0 0 0.03 
5.0 
5.0 
92 1 93 0 0 0 0 0 0.03 
5.0 
5.0 
93 1 94 0 0 0 0 0 0.03 
5.0 
5.0 
94 1 95 0 0 0 0 0 0.03 
5.0 
5.0 
95 1 96 0 0 0 0 0 0.03 
5.0 
5.0 
96 1 97 0 0 0 0 0 0.03 
5.0 
5.0 
97 1 98 0 0 0 0 0 0.03 
5.0 
5.0 
98 1 99 0 0 0 0 0 0.03 
5.0 
5.0 
99 1 100 0 0 0 0 0 0.03 
5.0 
5.0 
100 1 101 0 0 0 0 0 0.03 
5.0 
5.0 
101 1 102 0 0 0 0 0 0.03 
5.0 
5.0 
102 1 103 0 0 0 0 0 0.03 
5.0 
5.0 
103 1 104 0 0 0 0 0 0.03 
5.0 
5.0 
104 1 105 0 0 0 0 0 0.03 
5.0 
5.0 
105 1 106 0 0 0 0 0 0.03 
5.0 
5.0 
106 1 107 0 0 0 0 0 0.03 
5.0 
5.0 
107 1 108 0 0 0 0 0 0.03 
5.0 
5.0 
108 1 109 0 0 0 0 0 0.03 
5.0 
5.0 
109 1 110 0 0 0 0 0 0.03 
5.0 
5.0 
110 1 111 0 0 0 0 0 0.03 
5.0 
5.0 
111 1 112 0 0 0 0 0 0.03 
5.0 
5.0 
112 1 113 0 0 0 0 0 0.03 
5.0 
5.0 
113 1 114 0 0 0 0 0 0.03 
5.0 
5.0 
114 1 115 0 0 0 0 0 0.03 
5.0 
5.0 
115 1 116 0 0 0 0 0 0.03 
5.0 
5.0 
116 1 117 0 0 0 0 0 0.03 
5.0 
5.0 
117 1 118 0 0 0 0 0 0.03 
5.0 
5.0 
118 1 119 0 0 0 0 0 0.03 
5.0 
5.0 
119 1 120 0 0 0 0 0 0.03 
5.0 
5.0 
120 1 0 0 0 0 0 0 0.03 
5.0 
5.0 
-120 0 0 0
-120 0 0 0
-120 0 0 0
-120 0 0 0
-120 0 0 0
-120 0 0 0
-120 0 0 0
-120 0 0 0
-120 0 0 0
-120 0 0 0
-120 0 0 0
-120 0 0 0
-120 0 0 0
-120 0 0 0
-120 0 0 0
-120 0 0 0
-120 0 0 0
-120 0 0 0
-120 0 0 0
-120 0 0 0
-120 0 0 0
-120 0 0 0
-120 0 0 0
-120 0 0 0
-120 0 0 0
-120 0 0 0
-120 0 0 0
-120 0 0 0
-120 0 0 0
-120 0 0 0
-120 0 0 0
-120 0 0 0
-120 0 0 0
-120 0 0 0
-120 0 0 0
-120 0 0 0
-120 0 0 0
-120 0 0 0
-120 0 0 0
-120 0 0 0
-120 0 0 0
-120 0 0 0
-120 0 0 0
-120 0 0 0
-120 0 0 0
-120 0 0 0
-120 0 0 0
-120 0 0 0
-120 0 0 0
-120 0 0 0
-120 0 0 0
-120 0 0 0
-120 0 0 0
-120 0 0 0
-120 0 0 0
-120 0 0 0
-120 0 0 0
-120 0 0 0
-120 0 0 0
-120 0 0 0
-120 0 0 0
-120 0 0 0
-120 0 0 0
-120 0 0 0
-120 0 0 0
-120 0 0 0
-120 0 0 0
-120 0 0 0
-120 0 0 0
-120 0 0 0
-120 0 0 0
-120 0 0 0
-120 0 0 0
-120 0 0 0
-120 0 0 0
-120 0 0 0
-120 0 0 0
-120 0 0 0
-120 0 0 0
-120 0 0 0
-120 0 0 0
-120 0 0 0
-120 0 0 0
-120 0 0 0
-120 0 0 0
-120 0 0 0
-120 0 0 0
-120 0 0 0
-120 0 0 0
-120 0 0 0
-120 0 0 0
-120 0 0 0
-120 0 0 0
-120 0 0 0
-120 0 0 0
-120 0 0 0
-120 0 0 0
-120 0 0 0
-120 0 0 0
-120 0 0 0
-120 0 0 0
-120 0 0 0
-120 0 0 0
-120 0 0 0
-120 0 0 0
-120 0 0 0
-120 0 0 0
-120 0 0 0
-120 0 0 0
-120 0 0 0
-120 0 0 0
-120 0 0 0
-120 0 0 0
-120 0 0 0
-120 0 0 0
-120 0 0 0
-120 0 0 0
-120 0 0 0
-120 0 0 0
-120 0 0 0
-120 0 0 0
-120 0 0 0
-120 0 0 0
-120 0 0 0
-120 0 0 0
-120 0 0 0
-120 0 0 0
-120 0 0 0
-120 0 0 0
-120 0 0 0
-120 0 0 0
-120 0 0 0
-120 0 0 0
-120 0 0 0
-120 0 0 0
-120 0 0 0
-120 0 0 0
-120 0 0 0
-120 0 0 0
-120 0 0 0
-120 0 0 0
-120 0 0 0
-120 0 0 0
-120 0 0 0
-120 0 0 0
-120 0 0 0
-120 0 0 0
-120 0 0 0
-120 0 0 0
-120 0 0 0
-120 0 0 0
-120 0 0 0
-120 0 0 0
-120 0 0 0
-120 0 0 0
-120 0 0 0
-120 0 0 0
-120 0 0 0
-120 0 0 0
-120 0 0 0
-120 0 0 0
-120 0 0 0
-120 0 0 0
-120 0 0 0
-120 0 0 0
-120 0 0 0
-120 0 0 0
-120 0 0 0
-120 0 0 0
-120 0 0 0
-120 0 0 0
-120 0 0 0
-120 0 0 0
-120 0 0 0
-120 0 0 0
-120 0 0 0
-120 0 0 0
-120 0 0 0
-120 0 0 0
-120 0 0 0
-120 0 0 0
-120 0 0 0
-120 0 0 0
-120 0 0 0
-120 0 0 0
-120 0 0 0
-120 0 0 0
-120 0 0 0
-120 0 0 0
-120 0 0 0
-120 0 0 0
-120 0 0 0
-120 0 0 0
-120 0 0 0
-120 0 0 0
-120 0 0 0
-120 0 0 0
-120 0 0 0
-120 0 0 0
-120 0 0 0
-120 0 0 0
-120 0 0 0
-120 0 0 0
-120 0 0 0
-120 0 0 0
-120 0 0 0
-120 0 0 0
-120 0 0 0
-120 0 0 0
-120 0 0 0
-120 0 0 0
-120 0 0 0
-120 0 0 0
-120 0 0 0
-120 0 0 0
-120 0 0 0
-120 0 0 0
-120 0 0 0
-120 0 0 0
-120 0 0 0
-120 0 0 0
-120 0 0 0
-120 0 0 0
-120 0 0 0
-120 0 0 0
-120 0 0 0
-120 0 0 0
-120 0 0 0
-120 0 0 0
-120 0 0 0
-120 0 0 0
-120 0 0 0
-120 0 0 0
-120 0 0 0
-120 0 0 0
-120 0 0 0
-120 0 0 0
-120 0 0 0
-120 0 0 0
-120 0 0 0
-120 0 0 0
-120 0 0 0
-120 0 0 0
-120 0 0 0
-120 0 0 0
-120 0 0 0
-120 0 0 0
-120 0 0 0
-120 0 0 0
-120 0 0 0
-120 0 0 0
-120 0 0 0
-120 0 0 0
-120 0 0 0
-120 0 0 0
-120 0 0 0
-120 0 0 0
-120 0 0 0
-120 0 0 0
-120 0 0 0
-120 0 0 0
-120 0 0 0
-120 0 0 0
-120 0 0 0
-120 0 0 0
-120 0 0 0
-120 0 0 0
-120 0 0 0
-120 0 0 0
-120 0 0 0
-120 0 0 0
-120 0 0 0
-120 0 0 0
-120 0 0 0
-120 0 0 0
-120 0 0 0
-120 0 0 0
-120 0 0 0
-120 0 0 0
-120 0 0 0
-120 0 0 0
-120 0 0 0
-120 0 0 0
-120 0 0 0
-120 0 0 0
-120 0 0 0
-120 0 0 0
-120 0 0 0
-120 0 0 0
-120 0 0 0
-120 0 0 0
-120 0 0 0
-120 0 0 0
-120 0 0 0
-120 0 0 0
-120 0 0 0
-120 0 0 0
-120 0 0 0
-120 0 0 0
-120 0 0 0
-120 0 0 0
-120 0 0 0
-120 0 0 0
-120 0 0 0
-120 0 0 0
-120 0 0 0
-120 0 0 0
-120 0 0 0
-120 0 0 0
-120 0 0 0
-120 0 0 0
-120 0 0 0
-120 0 0 0
-120 0 0 0
-120 0 0 0
-120 0 0 0
-120 0 0 0
-120 0 0 0
-120 0 0 0
-120 0 0 0
-120 0 0 0
-120 0 0 0
-120 0 0 0
-120 0 0 0
-120 0 0 0
-120 0 0 0
-120 0 0 0
-120 0 0 0
-120 0 0 0
-120 0 0 0
-120 0 0 0
-120 0 0 0
-120 0 0 0
-120 0 0 0
-120 0 0 0
-120 0 0 0
-120 0 0 0
-120 0 0 0
-120 0 0 0
-120 0 0 0
-120 0 0 0
-120 0 0 0
-120 0 0 0
-120 0 0 0
-120 0 0 0
-120 0 0 0
-120 0 0 0
-120 0 0 0
-120 0 0 0
-120 0 0 0
-120 0 0 0
-120 0 0 0
-120 0 0 0
-120 0 0 0
-120 0 0 0
-120 0 0 0
-120 0 0 0
-120 0 0 0
-120 0 0 0
-120 0 0 0
-120 0 0 0
-120 0 0 0
-120 0 0 0
-120 0 0 0
-120 0 0 0
-120 0 0 0
-120 0 0 0
-120 0 0 0
-120 0 0 0
-120 0 0 0
-120 0 0 0
-120 0 0 0
-120 0 0 0
-120 0 0 0
-120 0 0 0
-120 0 0 0
-120 0 0 0
-120 0 0 0
-120 0 0 0
-120 0 0 0
-120 0 0 0
-120 0 0 0
-120 0 0 0
-120 0 0 0
-120 0 0 0
-120 0 0 0
-120 0 0 0
-120 0 0 0
-120 0 0 0
-120 0 0 0
-120 0 0 0
-120 0 0 0
-120 0 0 0
-120 0 0 0
-120 0 0 0
-120 0 0 0
-120 0 0 0
-120 0 0 0
-120 0 0 0
-120 0 0 0
-120 0 0 0
-120 0 0 0
-120 0 0 0
-120 0 0 0
-120 0 0 0
-120 0 0 0
-120 0 0 0
-120 0 0 0
-120 0 0 0
-120 0 0 0
-120 0 0 0
-120 0 0 0
-120 0 0 0
-120 0 0 0
-120 0 0 0
-120 0 0 0
-120 0 0 0
-120 0 0 0
-120 0 0 0
-120 0 0 0
-120 0 0 0
-120 0 0 0
-120 0 0 0
-120 0 0 0
-120 0 0 0
-120 0 0 0
-120 0 0 0
-120 0 0 0
-120 0 0 0
-120 0 0 0
-120 0 0 0
-120 0 0 0
-120 0 0 0
-120 0 0 0
-120 0 0 0
-120 0 0 0
-120 0 0 0
-120 0 0 0
-120 0 0 0
-120 0 0 0
-120 0 0 0
-120 0 0 0
-120 0 0 0
-120 0 0 0
-120 0 0 0
-120 0 0 0
-120 0 0 0
-120 0 0 0
-120 0 0 0
-120 0 0 0
-120 0 0 0
-120 0 0 0
-120 0 0 0
-120 0 0 0
-120 0 0 0
-120 0 0 0
-120 0 0 0
-120 0 0 0
-120 0 0 0
-120 0 0 0
-120 0 0 0
-120 0 0 0
-120 0 0 0
-120 0 0 0
-120 0 0 0
-120 0 0 0
-120 0 0 0
-120 0 0 0
-120 0 0 0
-120 0 0 0
-120 0 0 0
-120 0 0 0
-120 0 0 0
-120 0 0 0
-120 0 0 0
-120 0 0 0
-120 0 0 0
-120 0 0 0
-120 0 0 0
-120 0 0 0
-120 0 0 0
-120 0 0 0
-120 0 0 0
-120 0 0 0
-120 0 0 0
-120 0 0 0
-120 0 0 0
-120 0 0 0
-120 0 0 0
-120 0 0 0
-120 0 0 0
-120 0 0 0
-120 0 0 0
-120 0 0 0
-120 0 0 0
-120 0 0 0
-120 0 0 0
-120 0 0 0
-120 0 0 0
-120 0 0 0
-120 0 0 0
-120 0 0 0
-120 0 0 0
-120 0 0 0
-120 0 0 0
-120 0 0 0
-120 0 0 0
-120 0 0 0
-120 0 0 0
-120 0 0 0
-120 0 0 0
-120 0 0 0
-120 0 0 0
-120 0 0 0
-120 0 0 0
-120 0 0 0
-120 0 0 0
-120 0 0 0
-120 0 0 0
-120 0 0 0
-120 0 0 0
-120 0 0 0
-120 0 0 0
-120 0 0 0
-120 0 0 0
-120 0 0 0
-120 0 0 0
-120 0 0 0
-120 0 0 0
-120 0 0 0
-120 0 0 0
-120 0 0 0
-120 0 0 0
-120 0 0 0
-120 0 0 0
-120 0 0 0
-120 0 0 0
-120 0 0 0
-120 0 0 0
-120 0 0 0
-120 0 0 0
-120 0 0 0
-120 0 0 0
-120 0 0 0
-120 0 0 0
-120 0 0 0
-120 0 0 0
-120 0 0 0
-120 0 0 0
-120 0 0 0
-120 0 0 0
-120 0 0 0
-120 0 0 0
-120 0 0 0
-120 0 0 0
-120 0 0 0
-120 0 0 0
-120 0 0 0
-120 0 0 0
-120 0 0 0
-120 0 0 0
-120 0 0 0
-120 0 0 0
-120 0 0 0
-120 0 0 0
-120 0 0 0
-120 0 0 0
-120 0 0 0
-120 0 0 0
-120 0 0 0
-120 0 0 0
-120 0 0 0
-120 0 0 0
-120 0 0 0
-120 0 0 0
-120 0 0 0
-120 0 0 0
-120 0 0 0
-120 0 0 0
-120 0 0 0
-120 0 0 0
-120 0 0 0
-120 0 0 0
-120 0 0 0
-120 0 0 0
-120 0 0 0
-120 0 0 0
-120 0 0 0
-120 0 0 0
-120 0 0 0
-120 0 0 0
-120 0 0 0
-120 0 0 0
-120 0 0 0
-120 0 0 0
-120 0 0 0
-120 0 0 0
-120 0 0 0
-120 0 0 0
-120 0 0 0
-120 0 0 0
-120 0 0 0
-120 0 0 0
-120 0 0 0
-120 0 0 0
-120 0 0 0
-120 0 0 0
-120 0 0 0
-120 0 0 0
-120 0 0 0
-120 0 0 0
-120 0 0 0
-120 0 0 0
-120 0 0 0
-120 0 0 0
-120 0 0 0
-120 0 0 0
-120 0 0 0
-120 0 0 0
-120 0 0 0
-120 0 0 0
-120 0 0 0
-120 0 0 0
-120 0 0 0
-120 0 0 0
-120 0 0 0
-120 0 0 0
-120 0 0 0
-120 0 0 0
-120 0 0 0
-120 0 0 0
-120 0 0 0
-120 0 0 0
-120 0 0 0
-120 0 0 0
-120 0 0 0
-120 0 0 0
-120 0 0 0
-120 0 0 0
-120 0 0 0
-120 0 0 0
-120 0 0 0
-120 0 0 0
-120 0 0 0
-120 0 0 0
-120 0 0 0
-120 0 0 0
-120 0 0 0
-120 0 0 0
-120 0 0 0
-120 0 0 0
-120 0 0 0
-120 0 0 0
-120 0 0 0
-120 0 0 0
-120 0 0 0
-120 0 0 0
-120 0 0 0
-120 0 0 0
-120 0 0 0
-120 0 0 0
-120 0 0 0
-120 0 0 0
-120 0 0 0
-120 0 0 0
-120 0 0 0
-120 0 0 0
-120 0 0 0
-120 0 0 0
-120 0 0 0
-120 0 0 0
-120 0 0 0
-120 0 0 0
-120 0 0 0
-120 0 0 0
-120 0 0 0
-120 0 0 0
-120 0 0 0
-120 0 0 0
-120 0 0 0
-120 0 0 0
-120 0 0 0
-120 0 0 0
-120 0 0 0
-120 0 0 0
-120 0 0 0
-120 0 0 0
-120 0 0 0
-120 0 0 0
-120 0 0 0
-120 0 0 0
-120 0 0 0
-120 0 0 0
-120 0 0 0
-120 0 0 0
-120 0 0 0
-120 0 0 0
-120 0 0 0
-120 0 0 0
-120 0 0 0
-120 0 0 0
-120 0 0 0
-120 0 0 0
-120 0 0 0
-120 0 0 0
-120 0 0 0
-120 0 0 0
-120 0 0 0
-120 0 0 0
-120 0 0 0
-120 0 0 0
-120 0 0 0
-120 0 0 0
-120 0 0 0
-120 0 0 0
-120 0 0 0
-120 0 0 0
-120 0 0 0
-120 0 0 0
-120 0 0 0
-120 0 0 0
-120 0 0 0
-120 0 0 0
-120 0 0 0
-120 0 0 0
-120 0 0 0
-120 0 0 0
-120 0 0 0
-120 0 0 0
-120 0 0 0
