BEGIN Options
  LIST       freyberg6.lst
  NEWTON
END Options

BEGIN Packages
  DIS6       freyberg6.dis
  IC6        freyberg6.ic
  NPF6       freyberg6.npf
  STO6       freyberg6.sto
  OC6        freyberg6.oc
  RCH6       freyberg6.rch
  WEL6       freyberg6.wel
  GHB6       freyberg6.ghb
  SFR6       freyberg6.sfr  'SFR_1'           
END Packages

