# WEL6 input file, prepared by MF5to6 on 6/30/2020 at 17:28:57.

BEGIN Options
  PRINT_INPUT
  PRINT_FLOWS
  SAVE_FLOWS
END Options

BEGIN Dimensions
  MAXBOUND  6
END Dimensions

BEGIN PERIOD 1
  3  29  50   -150.00000
  3  35  41   -150.00000
  3  62  44   -150.00000
  3  80  32   -150.00000
  3  89  20   -150.00000
  3  104  38   -150.00000
END PERIOD

BEGIN PERIOD 2
  3  29  50   -150.13070
  3  35  41   -150.13070
  3  62  44   -150.13070
  3  80  32   -150.13070
  3  89  20   -150.13070
  3  104  38   -150.13070
END PERIOD

BEGIN PERIOD 3
  3  29  50   -150.02104
  3  35  41   -150.02104
  3  62  44   -150.02104
  3  80  32   -150.02104
  3  89  20   -150.02104
  3  104  38   -150.02104
END PERIOD

BEGIN PERIOD 4
  3  29  50   -150.05182
  3  35  41   -150.05182
  3  62  44   -150.05182
  3  80  32   -150.05182
  3  89  20   -150.05182
  3  104  38   -150.05182
END PERIOD

BEGIN PERIOD 5
  3  29  50   -150.11104
  3  35  41   -150.11104
  3  62  44   -150.11104
  3  80  32   -150.11104
  3  89  20   -150.11104
  3  104  38   -150.11104
END PERIOD

BEGIN PERIOD 6
  3  29  50   -150.02756
  3  35  41   -150.02756
  3  62  44   -150.02756
  3  80  32   -150.02756
  3  89  20   -150.02756
  3  104  38   -150.02756
END PERIOD

BEGIN PERIOD 7
  3  29  50   -150.09065
  3  35  41   -150.09065
  3  62  44   -150.09065
  3  80  32   -150.09065
  3  89  20   -150.09065
  3  104  38   -150.09065
END PERIOD

BEGIN PERIOD 8
  3  29  50   -150.13942
  3  35  41   -150.13942
  3  62  44   -150.13942
  3  80  32   -150.13942
  3  89  20   -150.13942
  3  104  38   -150.13942
END PERIOD

BEGIN PERIOD 9
  3  29  50   -150.00188
  3  35  41   -150.00188
  3  62  44   -150.00188
  3  80  32   -150.00188
  3  89  20   -150.00188
  3  104  38   -150.00188
END PERIOD

BEGIN PERIOD 10
  3  29  50   -150.04225
  3  35  41   -150.04225
  3  62  44   -150.04225
  3  80  32   -150.04225
  3  89  20   -150.04225
  3  104  38   -150.04225
END PERIOD

BEGIN PERIOD 11
  3  29  50   -150.13414
  3  35  41   -150.13414
  3  62  44   -150.13414
  3  80  32   -150.13414
  3  89  20   -150.13414
  3  104  38   -150.13414
END PERIOD

BEGIN PERIOD 12
  3  29  50   -150.13617
  3  35  41   -150.13617
  3  62  44   -150.13617
  3  80  32   -150.13617
  3  89  20   -150.13617
  3  104  38   -150.13617
END PERIOD

BEGIN PERIOD 13
  3  29  50   -150.04095
  3  35  41   -150.04095
  3  62  44   -150.04095
  3  80  32   -150.04095
  3  89  20   -150.04095
  3  104  38   -150.04095
END PERIOD

BEGIN PERIOD 14
  3  29  50   -150.04254
  3  35  41   -150.04254
  3  62  44   -150.04254
  3  80  32   -150.04254
  3  89  20   -150.04254
  3  104  38   -150.04254
END PERIOD

BEGIN PERIOD 15
  3  29  50   -150.08424
  3  35  41   -150.08424
  3  62  44   -150.08424
  3  80  32   -150.08424
  3  89  20   -150.08424
  3  104  38   -150.08424
END PERIOD

BEGIN PERIOD 16
  3  29  50   -150.03156
  3  35  41   -150.03156
  3  62  44   -150.03156
  3  80  32   -150.03156
  3  89  20   -150.03156
  3  104  38   -150.03156
END PERIOD

BEGIN PERIOD 17
  3  29  50   -150.09180
  3  35  41   -150.09180
  3  62  44   -150.09180
  3  80  32   -150.09180
  3  89  20   -150.09180
  3  104  38   -150.09180
END PERIOD

BEGIN PERIOD 18
  3  29  50   -150.11838
  3  35  41   -150.11838
  3  62  44   -150.11838
  3  80  32   -150.11838
  3  89  20   -150.11838
  3  104  38   -150.11838
END PERIOD

BEGIN PERIOD 19
  3  29  50   -150.00302
  3  35  41   -150.00302
  3  62  44   -150.00302
  3  80  32   -150.00302
  3  89  20   -150.00302
  3  104  38   -150.00302
END PERIOD

BEGIN PERIOD 20
  3  29  50   -150.14172
  3  35  41   -150.14172
  3  62  44   -150.14172
  3  80  32   -150.14172
  3  89  20   -150.14172
  3  104  38   -150.14172
END PERIOD

BEGIN PERIOD 21
  3  29  50   -150.03820
  3  35  41   -150.03820
  3  62  44   -150.03820
  3  80  32   -150.03820
  3  89  20   -150.03820
  3  104  38   -150.03820
END PERIOD

BEGIN PERIOD 22
  3  29  50   -150.13882
  3  35  41   -150.13882
  3  62  44   -150.13882
  3  80  32   -150.13882
  3  89  20   -150.13882
  3  104  38   -150.13882
END PERIOD

BEGIN PERIOD 23
  3  29  50   -150.14670
  3  35  41   -150.14670
  3  62  44   -150.14670
  3  80  32   -150.14670
  3  89  20   -150.14670
  3  104  38   -150.14670
END PERIOD

BEGIN PERIOD 24
  3  29  50   -150.08905
  3  35  41   -150.08905
  3  62  44   -150.08905
  3  80  32   -150.08905
  3  89  20   -150.08905
  3  104  38   -150.08905
END PERIOD

BEGIN PERIOD 25
  3  29  50   -150.06941
  3  35  41   -150.06941
  3  62  44   -150.06941
  3  80  32   -150.06941
  3  89  20   -150.06941
  3  104  38   -150.06941
END PERIOD

BEGIN PERIOD 26
  3  29  50   -150.09383
  3  35  41   -150.09383
  3  62  44   -150.09383
  3  80  32   -150.09383
  3  89  20   -150.09383
  3  104  38   -150.09383
END PERIOD

BEGIN PERIOD 27
  3  29  50   -150.12054
  3  35  41   -150.12054
  3  62  44   -150.12054
  3  80  32   -150.12054
  3  89  20   -150.12054
  3  104  38   -150.12054
END PERIOD

BEGIN PERIOD 28
  3  29  50   -150.09343
  3  35  41   -150.09343
  3  62  44   -150.09343
  3  80  32   -150.09343
  3  89  20   -150.09343
  3  104  38   -150.09343
END PERIOD

BEGIN PERIOD 29
  3  29  50   -150.13202
  3  35  41   -150.13202
  3  62  44   -150.13202
  3  80  32   -150.13202
  3  89  20   -150.13202
  3  104  38   -150.13202
END PERIOD

BEGIN PERIOD 30
  3  29  50   -150.02391
  3  35  41   -150.02391
  3  62  44   -150.02391
  3  80  32   -150.02391
  3  89  20   -150.02391
  3  104  38   -150.02391
END PERIOD

BEGIN PERIOD 31
  3  29  50   -150.06743
  3  35  41   -150.06743
  3  62  44   -150.06743
  3  80  32   -150.06743
  3  89  20   -150.06743
  3  104  38   -150.06743
END PERIOD

BEGIN PERIOD 32
  3  29  50   -150.10431
  3  35  41   -150.10431
  3  62  44   -150.10431
  3  80  32   -150.10431
  3  89  20   -150.10431
  3  104  38   -150.10431
END PERIOD

BEGIN PERIOD 33
  3  29  50   -150.11966
  3  35  41   -150.11966
  3  62  44   -150.11966
  3  80  32   -150.11966
  3  89  20   -150.11966
  3  104  38   -150.11966
END PERIOD

BEGIN PERIOD 34
  3  29  50   -150.14313
  3  35  41   -150.14313
  3  62  44   -150.14313
  3  80  32   -150.14313
  3  89  20   -150.14313
  3  104  38   -150.14313
END PERIOD

BEGIN PERIOD 35
  3  29  50   -150.14673
  3  35  41   -150.14673
  3  62  44   -150.14673
  3  80  32   -150.14673
  3  89  20   -150.14673
  3  104  38   -150.14673
END PERIOD

BEGIN PERIOD 36
  3  29  50   -150.14894
  3  35  41   -150.14894
  3  62  44   -150.14894
  3  80  32   -150.14894
  3  89  20   -150.14894
  3  104  38   -150.14894
END PERIOD

BEGIN PERIOD 37
  3  29  50   -150.02504
  3  35  41   -150.02504
  3  62  44   -150.02504
  3  80  32   -150.02504
  3  89  20   -150.02504
  3  104  38   -150.02504
END PERIOD

BEGIN PERIOD 38
  3  29  50   -150.11797
  3  35  41   -150.11797
  3  62  44   -150.11797
  3  80  32   -150.11797
  3  89  20   -150.11797
  3  104  38   -150.11797
END PERIOD

BEGIN PERIOD 39
  3  29  50   -150.12523
  3  35  41   -150.12523
  3  62  44   -150.12523
  3  80  32   -150.12523
  3  89  20   -150.12523
  3  104  38   -150.12523
END PERIOD

BEGIN PERIOD 40
  3  29  50   -150.03754
  3  35  41   -150.03754
  3  62  44   -150.03754
  3  80  32   -150.03754
  3  89  20   -150.03754
  3  104  38   -150.03754
END PERIOD

BEGIN PERIOD 41
  3  29  50   -150.12800
  3  35  41   -150.12800
  3  62  44   -150.12800
  3  80  32   -150.12800
  3  89  20   -150.12800
  3  104  38   -150.12800
END PERIOD

BEGIN PERIOD 42
  3  29  50   -150.12299
  3  35  41   -150.12299
  3  62  44   -150.12299
  3  80  32   -150.12299
  3  89  20   -150.12299
  3  104  38   -150.12299
END PERIOD

BEGIN PERIOD 43
  3  29  50   -150.09148
  3  35  41   -150.09148
  3  62  44   -150.09148
  3  80  32   -150.09148
  3  89  20   -150.09148
  3  104  38   -150.09148
END PERIOD

BEGIN PERIOD 44
  3  29  50   -150.02550
  3  35  41   -150.02550
  3  62  44   -150.02550
  3  80  32   -150.02550
  3  89  20   -150.02550
  3  104  38   -150.02550
END PERIOD

BEGIN PERIOD 45
  3  29  50   -150.00206
  3  35  41   -150.00206
  3  62  44   -150.00206
  3  80  32   -150.00206
  3  89  20   -150.00206
  3  104  38   -150.00206
END PERIOD

BEGIN PERIOD 46
  3  29  50   -150.05716
  3  35  41   -150.05716
  3  62  44   -150.05716
  3  80  32   -150.05716
  3  89  20   -150.05716
  3  104  38   -150.05716
END PERIOD

BEGIN PERIOD 47
  3  29  50   -150.08646
  3  35  41   -150.08646
  3  62  44   -150.08646
  3  80  32   -150.08646
  3  89  20   -150.08646
  3  104  38   -150.08646
END PERIOD

BEGIN PERIOD 48
  3  29  50   -150.04417
  3  35  41   -150.04417
  3  62  44   -150.04417
  3  80  32   -150.04417
  3  89  20   -150.04417
  3  104  38   -150.04417
END PERIOD

BEGIN PERIOD 49
  3  29  50   -150.05900
  3  35  41   -150.05900
  3  62  44   -150.05900
  3  80  32   -150.05900
  3  89  20   -150.05900
  3  104  38   -150.05900
END PERIOD

BEGIN PERIOD 50
  3  29  50   -150.00545
  3  35  41   -150.00545
  3  62  44   -150.00545
  3  80  32   -150.00545
  3  89  20   -150.00545
  3  104  38   -150.00545
END PERIOD

BEGIN PERIOD 51
  3  29  50   -150.01332
  3  35  41   -150.01332
  3  62  44   -150.01332
  3  80  32   -150.01332
  3  89  20   -150.01332
  3  104  38   -150.01332
END PERIOD

BEGIN PERIOD 52
  3  29  50   -150.10155
  3  35  41   -150.10155
  3  62  44   -150.10155
  3  80  32   -150.10155
  3  89  20   -150.10155
  3  104  38   -150.10155
END PERIOD

BEGIN PERIOD 53
  3  29  50   -150.05598
  3  35  41   -150.05598
  3  62  44   -150.05598
  3  80  32   -150.05598
  3  89  20   -150.05598
  3  104  38   -150.05598
END PERIOD

BEGIN PERIOD 54
  3  29  50   -150.03143
  3  35  41   -150.03143
  3  62  44   -150.03143
  3  80  32   -150.03143
  3  89  20   -150.03143
  3  104  38   -150.03143
END PERIOD

BEGIN PERIOD 55
  3  29  50   -150.00989
  3  35  41   -150.00989
  3  62  44   -150.00989
  3  80  32   -150.00989
  3  89  20   -150.00989
  3  104  38   -150.00989
END PERIOD

BEGIN PERIOD 56
  3  29  50   -150.04990
  3  35  41   -150.04990
  3  62  44   -150.04990
  3  80  32   -150.04990
  3  89  20   -150.04990
  3  104  38   -150.04990
END PERIOD

BEGIN PERIOD 57
  3  29  50   -150.09508
  3  35  41   -150.09508
  3  62  44   -150.09508
  3  80  32   -150.09508
  3  89  20   -150.09508
  3  104  38   -150.09508
END PERIOD

BEGIN PERIOD 58
  3  29  50   -150.03465
  3  35  41   -150.03465
  3  62  44   -150.03465
  3  80  32   -150.03465
  3  89  20   -150.03465
  3  104  38   -150.03465
END PERIOD

BEGIN PERIOD 59
  3  29  50   -150.10829
  3  35  41   -150.10829
  3  62  44   -150.10829
  3  80  32   -150.10829
  3  89  20   -150.10829
  3  104  38   -150.10829
END PERIOD

BEGIN PERIOD 60
  3  29  50   -150.07254
  3  35  41   -150.07254
  3  62  44   -150.07254
  3  80  32   -150.07254
  3  89  20   -150.07254
  3  104  38   -150.07254
END PERIOD

BEGIN PERIOD 61
  3  29  50   -150.00711
  3  35  41   -150.00711
  3  62  44   -150.00711
  3  80  32   -150.00711
  3  89  20   -150.00711
  3  104  38   -150.00711
END PERIOD

BEGIN PERIOD 62
  3  29  50   -150.05722
  3  35  41   -150.05722
  3  62  44   -150.05722
  3  80  32   -150.05722
  3  89  20   -150.05722
  3  104  38   -150.05722
END PERIOD

BEGIN PERIOD 63
  3  29  50   -150.10104
  3  35  41   -150.10104
  3  62  44   -150.10104
  3  80  32   -150.10104
  3  89  20   -150.10104
  3  104  38   -150.10104
END PERIOD

BEGIN PERIOD 64
  3  29  50   -150.03555
  3  35  41   -150.03555
  3  62  44   -150.03555
  3  80  32   -150.03555
  3  89  20   -150.03555
  3  104  38   -150.03555
END PERIOD

BEGIN PERIOD 65
  3  29  50   -150.04102
  3  35  41   -150.04102
  3  62  44   -150.04102
  3  80  32   -150.04102
  3  89  20   -150.04102
  3  104  38   -150.04102
END PERIOD

BEGIN PERIOD 66
  3  29  50   -150.03528
  3  35  41   -150.03528
  3  62  44   -150.03528
  3  80  32   -150.03528
  3  89  20   -150.03528
  3  104  38   -150.03528
END PERIOD

BEGIN PERIOD 67
  3  29  50   -150.05849
  3  35  41   -150.05849
  3  62  44   -150.05849
  3  80  32   -150.05849
  3  89  20   -150.05849
  3  104  38   -150.05849
END PERIOD

BEGIN PERIOD 68
  3  29  50   -150.06494
  3  35  41   -150.06494
  3  62  44   -150.06494
  3  80  32   -150.06494
  3  89  20   -150.06494
  3  104  38   -150.06494
END PERIOD

BEGIN PERIOD 69
  3  29  50   -150.07544
  3  35  41   -150.07544
  3  62  44   -150.07544
  3  80  32   -150.07544
  3  89  20   -150.07544
  3  104  38   -150.07544
END PERIOD

BEGIN PERIOD 70
  3  29  50   -150.09718
  3  35  41   -150.09718
  3  62  44   -150.09718
  3  80  32   -150.09718
  3  89  20   -150.09718
  3  104  38   -150.09718
END PERIOD

BEGIN PERIOD 71
  3  29  50   -150.01929
  3  35  41   -150.01929
  3  62  44   -150.01929
  3  80  32   -150.01929
  3  89  20   -150.01929
  3  104  38   -150.01929
END PERIOD

BEGIN PERIOD 72
  3  29  50   -150.10748
  3  35  41   -150.10748
  3  62  44   -150.10748
  3  80  32   -150.10748
  3  89  20   -150.10748
  3  104  38   -150.10748
END PERIOD

BEGIN PERIOD 73
  3  29  50   -150.04956
  3  35  41   -150.04956
  3  62  44   -150.04956
  3  80  32   -150.04956
  3  89  20   -150.04956
  3  104  38   -150.04956
END PERIOD

BEGIN PERIOD 74
  3  29  50   -150.03473
  3  35  41   -150.03473
  3  62  44   -150.03473
  3  80  32   -150.03473
  3  89  20   -150.03473
  3  104  38   -150.03473
END PERIOD

BEGIN PERIOD 75
  3  29  50   -150.03957
  3  35  41   -150.03957
  3  62  44   -150.03957
  3  80  32   -150.03957
  3  89  20   -150.03957
  3  104  38   -150.03957
END PERIOD

BEGIN PERIOD 76
  3  29  50   -150.06816
  3  35  41   -150.06816
  3  62  44   -150.06816
  3  80  32   -150.06816
  3  89  20   -150.06816
  3  104  38   -150.06816
END PERIOD

BEGIN PERIOD 77
  3  29  50   -150.08273
  3  35  41   -150.08273
  3  62  44   -150.08273
  3  80  32   -150.08273
  3  89  20   -150.08273
  3  104  38   -150.08273
END PERIOD

BEGIN PERIOD 78
  3  29  50   -150.11285
  3  35  41   -150.11285
  3  62  44   -150.11285
  3  80  32   -150.11285
  3  89  20   -150.11285
  3  104  38   -150.11285
END PERIOD

BEGIN PERIOD 79
  3  29  50   -150.13580
  3  35  41   -150.13580
  3  62  44   -150.13580
  3  80  32   -150.13580
  3  89  20   -150.13580
  3  104  38   -150.13580
END PERIOD

BEGIN PERIOD 80
  3  29  50   -150.03978
  3  35  41   -150.03978
  3  62  44   -150.03978
  3  80  32   -150.03978
  3  89  20   -150.03978
  3  104  38   -150.03978
END PERIOD

BEGIN PERIOD 81
  3  29  50   -150.00427
  3  35  41   -150.00427
  3  62  44   -150.00427
  3  80  32   -150.00427
  3  89  20   -150.00427
  3  104  38   -150.00427
END PERIOD

BEGIN PERIOD 82
  3  29  50   -150.12431
  3  35  41   -150.12431
  3  62  44   -150.12431
  3  80  32   -150.12431
  3  89  20   -150.12431
  3  104  38   -150.12431
END PERIOD

BEGIN PERIOD 83
  3  29  50   -150.03102
  3  35  41   -150.03102
  3  62  44   -150.03102
  3  80  32   -150.03102
  3  89  20   -150.03102
  3  104  38   -150.03102
END PERIOD

BEGIN PERIOD 84
  3  29  50   -150.11955
  3  35  41   -150.11955
  3  62  44   -150.11955
  3  80  32   -150.11955
  3  89  20   -150.11955
  3  104  38   -150.11955
END PERIOD

BEGIN PERIOD 85
  3  29  50   -150.12330
  3  35  41   -150.12330
  3  62  44   -150.12330
  3  80  32   -150.12330
  3  89  20   -150.12330
  3  104  38   -150.12330
END PERIOD

BEGIN PERIOD 86
  3  29  50   -150.12857
  3  35  41   -150.12857
  3  62  44   -150.12857
  3  80  32   -150.12857
  3  89  20   -150.12857
  3  104  38   -150.12857
END PERIOD

BEGIN PERIOD 87
  3  29  50   -150.05255
  3  35  41   -150.05255
  3  62  44   -150.05255
  3  80  32   -150.05255
  3  89  20   -150.05255
  3  104  38   -150.05255
END PERIOD

BEGIN PERIOD 88
  3  29  50   -150.03725
  3  35  41   -150.03725
  3  62  44   -150.03725
  3  80  32   -150.03725
  3  89  20   -150.03725
  3  104  38   -150.03725
END PERIOD

BEGIN PERIOD 89
  3  29  50   -150.12144
  3  35  41   -150.12144
  3  62  44   -150.12144
  3  80  32   -150.12144
  3  89  20   -150.12144
  3  104  38   -150.12144
END PERIOD

BEGIN PERIOD 90
  3  29  50   -150.10126
  3  35  41   -150.10126
  3  62  44   -150.10126
  3  80  32   -150.10126
  3  89  20   -150.10126
  3  104  38   -150.10126
END PERIOD

BEGIN PERIOD 91
  3  29  50   -150.07283
  3  35  41   -150.07283
  3  62  44   -150.07283
  3  80  32   -150.07283
  3  89  20   -150.07283
  3  104  38   -150.07283
END PERIOD

BEGIN PERIOD 92
  3  29  50   -150.12213
  3  35  41   -150.12213
  3  62  44   -150.12213
  3  80  32   -150.12213
  3  89  20   -150.12213
  3  104  38   -150.12213
END PERIOD

BEGIN PERIOD 93
  3  29  50   -150.09227
  3  35  41   -150.09227
  3  62  44   -150.09227
  3  80  32   -150.09227
  3  89  20   -150.09227
  3  104  38   -150.09227
END PERIOD

BEGIN PERIOD 94
  3  29  50   -150.06178
  3  35  41   -150.06178
  3  62  44   -150.06178
  3  80  32   -150.06178
  3  89  20   -150.06178
  3  104  38   -150.06178
END PERIOD

BEGIN PERIOD 95
  3  29  50   -150.10521
  3  35  41   -150.10521
  3  62  44   -150.10521
  3  80  32   -150.10521
  3  89  20   -150.10521
  3  104  38   -150.10521
END PERIOD

BEGIN PERIOD 96
  3  29  50   -150.07349
  3  35  41   -150.07349
  3  62  44   -150.07349
  3  80  32   -150.07349
  3  89  20   -150.07349
  3  104  38   -150.07349
END PERIOD

BEGIN PERIOD 97
  3  29  50   -150.12228
  3  35  41   -150.12228
  3  62  44   -150.12228
  3  80  32   -150.12228
  3  89  20   -150.12228
  3  104  38   -150.12228
END PERIOD

BEGIN PERIOD 98
  3  29  50   -150.14066
  3  35  41   -150.14066
  3  62  44   -150.14066
  3  80  32   -150.14066
  3  89  20   -150.14066
  3  104  38   -150.14066
END PERIOD

BEGIN PERIOD 99
  3  29  50   -150.00009
  3  35  41   -150.00009
  3  62  44   -150.00009
  3  80  32   -150.00009
  3  89  20   -150.00009
  3  104  38   -150.00009
END PERIOD

BEGIN PERIOD 100
  3  29  50   -150.06343
  3  35  41   -150.06343
  3  62  44   -150.06343
  3  80  32   -150.06343
  3  89  20   -150.06343
  3  104  38   -150.06343
END PERIOD

BEGIN PERIOD 101
  3  29  50   -150.08092
  3  35  41   -150.08092
  3  62  44   -150.08092
  3  80  32   -150.08092
  3  89  20   -150.08092
  3  104  38   -150.08092
END PERIOD

BEGIN PERIOD 102
  3  29  50   -150.10007
  3  35  41   -150.10007
  3  62  44   -150.10007
  3  80  32   -150.10007
  3  89  20   -150.10007
  3  104  38   -150.10007
END PERIOD

BEGIN PERIOD 103
  3  29  50   -150.07286
  3  35  41   -150.07286
  3  62  44   -150.07286
  3  80  32   -150.07286
  3  89  20   -150.07286
  3  104  38   -150.07286
END PERIOD

BEGIN PERIOD 104
  3  29  50   -150.03026
  3  35  41   -150.03026
  3  62  44   -150.03026
  3  80  32   -150.03026
  3  89  20   -150.03026
  3  104  38   -150.03026
END PERIOD

BEGIN PERIOD 105
  3  29  50   -150.05396
  3  35  41   -150.05396
  3  62  44   -150.05396
  3  80  32   -150.05396
  3  89  20   -150.05396
  3  104  38   -150.05396
END PERIOD

BEGIN PERIOD 106
  3  29  50   -150.06116
  3  35  41   -150.06116
  3  62  44   -150.06116
  3  80  32   -150.06116
  3  89  20   -150.06116
  3  104  38   -150.06116
END PERIOD

BEGIN PERIOD 107
  3  29  50   -150.13513
  3  35  41   -150.13513
  3  62  44   -150.13513
  3  80  32   -150.13513
  3  89  20   -150.13513
  3  104  38   -150.13513
END PERIOD

BEGIN PERIOD 108
  3  29  50   -150.06075
  3  35  41   -150.06075
  3  62  44   -150.06075
  3  80  32   -150.06075
  3  89  20   -150.06075
  3  104  38   -150.06075
END PERIOD

BEGIN PERIOD 109
  3  29  50   -150.06848
  3  35  41   -150.06848
  3  62  44   -150.06848
  3  80  32   -150.06848
  3  89  20   -150.06848
  3  104  38   -150.06848
END PERIOD

BEGIN PERIOD 110
  3  29  50   -150.06808
  3  35  41   -150.06808
  3  62  44   -150.06808
  3  80  32   -150.06808
  3  89  20   -150.06808
  3  104  38   -150.06808
END PERIOD

BEGIN PERIOD 111
  3  29  50   -150.08676
  3  35  41   -150.08676
  3  62  44   -150.08676
  3  80  32   -150.08676
  3  89  20   -150.08676
  3  104  38   -150.08676
END PERIOD

BEGIN PERIOD 112
  3  29  50   -150.02374
  3  35  41   -150.02374
  3  62  44   -150.02374
  3  80  32   -150.02374
  3  89  20   -150.02374
  3  104  38   -150.02374
END PERIOD

BEGIN PERIOD 113
  3  29  50   -150.09882
  3  35  41   -150.09882
  3  62  44   -150.09882
  3  80  32   -150.09882
  3  89  20   -150.09882
  3  104  38   -150.09882
END PERIOD

BEGIN PERIOD 114
  3  29  50   -150.13107
  3  35  41   -150.13107
  3  62  44   -150.13107
  3  80  32   -150.13107
  3  89  20   -150.13107
  3  104  38   -150.13107
END PERIOD

BEGIN PERIOD 115
  3  29  50   -150.01416
  3  35  41   -150.01416
  3  62  44   -150.01416
  3  80  32   -150.01416
  3  89  20   -150.01416
  3  104  38   -150.01416
END PERIOD

BEGIN PERIOD 116
  3  29  50   -150.08392
  3  35  41   -150.08392
  3  62  44   -150.08392
  3  80  32   -150.08392
  3  89  20   -150.08392
  3  104  38   -150.08392
END PERIOD

BEGIN PERIOD 117
  3  29  50   -150.05420
  3  35  41   -150.05420
  3  62  44   -150.05420
  3  80  32   -150.05420
  3  89  20   -150.05420
  3  104  38   -150.05420
END PERIOD

BEGIN PERIOD 118
  3  29  50   -150.10155
  3  35  41   -150.10155
  3  62  44   -150.10155
  3  80  32   -150.10155
  3  89  20   -150.10155
  3  104  38   -150.10155
END PERIOD

BEGIN PERIOD 119
  3  29  50   -150.01470
  3  35  41   -150.01470
  3  62  44   -150.01470
  3  80  32   -150.01470
  3  89  20   -150.01470
  3  104  38   -150.01470
END PERIOD

BEGIN PERIOD 120
  3  29  50   -150.11006
  3  35  41   -150.11006
  3  62  44   -150.11006
  3  80  32   -150.11006
  3  89  20   -150.11006
  3  104  38   -150.11006
END PERIOD

BEGIN PERIOD 121
  3  29  50   -150.13252
  3  35  41   -150.13252
  3  62  44   -150.13252
  3  80  32   -150.13252
  3  89  20   -150.13252
  3  104  38   -150.13252
END PERIOD

BEGIN PERIOD 122
  3  29  50   -150.07271
  3  35  41   -150.07271
  3  62  44   -150.07271
  3  80  32   -150.07271
  3  89  20   -150.07271
  3  104  38   -150.07271
END PERIOD

BEGIN PERIOD 123
  3  29  50   -150.05048
  3  35  41   -150.05048
  3  62  44   -150.05048
  3  80  32   -150.05048
  3  89  20   -150.05048
  3  104  38   -150.05048
END PERIOD

BEGIN PERIOD 124
  3  29  50   -150.01918
  3  35  41   -150.01918
  3  62  44   -150.01918
  3  80  32   -150.01918
  3  89  20   -150.01918
  3  104  38   -150.01918
END PERIOD

BEGIN PERIOD 125
  3  29  50   -150.09958
  3  35  41   -150.09958
  3  62  44   -150.09958
  3  80  32   -150.09958
  3  89  20   -150.09958
  3  104  38   -150.09958
END PERIOD

BEGIN PERIOD 126
  3  29  50   -150.11633
  3  35  41   -150.11633
  3  62  44   -150.11633
  3  80  32   -150.11633
  3  89  20   -150.11633
  3  104  38   -150.11633
END PERIOD

BEGIN PERIOD 127
  3  29  50   -150.10501
  3  35  41   -150.10501
  3  62  44   -150.10501
  3  80  32   -150.10501
  3  89  20   -150.10501
  3  104  38   -150.10501
END PERIOD

BEGIN PERIOD 128
  3  29  50   -150.08769
  3  35  41   -150.08769
  3  62  44   -150.08769
  3  80  32   -150.08769
  3  89  20   -150.08769
  3  104  38   -150.08769
END PERIOD

BEGIN PERIOD 129
  3  29  50   -150.13217
  3  35  41   -150.13217
  3  62  44   -150.13217
  3  80  32   -150.13217
  3  89  20   -150.13217
  3  104  38   -150.13217
END PERIOD

BEGIN PERIOD 130
  3  29  50   -150.07648
  3  35  41   -150.07648
  3  62  44   -150.07648
  3  80  32   -150.07648
  3  89  20   -150.07648
  3  104  38   -150.07648
END PERIOD

BEGIN PERIOD 131
  3  29  50   -150.01400
  3  35  41   -150.01400
  3  62  44   -150.01400
  3  80  32   -150.01400
  3  89  20   -150.01400
  3  104  38   -150.01400
END PERIOD

BEGIN PERIOD 132
  3  29  50   -150.13330
  3  35  41   -150.13330
  3  62  44   -150.13330
  3  80  32   -150.13330
  3  89  20   -150.13330
  3  104  38   -150.13330
END PERIOD

BEGIN PERIOD 133
  3  29  50   -150.03227
  3  35  41   -150.03227
  3  62  44   -150.03227
  3  80  32   -150.03227
  3  89  20   -150.03227
  3  104  38   -150.03227
END PERIOD

BEGIN PERIOD 134
  3  29  50   -150.12057
  3  35  41   -150.12057
  3  62  44   -150.12057
  3  80  32   -150.12057
  3  89  20   -150.12057
  3  104  38   -150.12057
END PERIOD

BEGIN PERIOD 135
  3  29  50   -150.10948
  3  35  41   -150.10948
  3  62  44   -150.10948
  3  80  32   -150.10948
  3  89  20   -150.10948
  3  104  38   -150.10948
END PERIOD

BEGIN PERIOD 136
  3  29  50   -150.01955
  3  35  41   -150.01955
  3  62  44   -150.01955
  3  80  32   -150.01955
  3  89  20   -150.01955
  3  104  38   -150.01955
END PERIOD

BEGIN PERIOD 137
  3  29  50   -150.05470
  3  35  41   -150.05470
  3  62  44   -150.05470
  3  80  32   -150.05470
  3  89  20   -150.05470
  3  104  38   -150.05470
END PERIOD

BEGIN PERIOD 138
  3  29  50   -150.08005
  3  35  41   -150.08005
  3  62  44   -150.08005
  3  80  32   -150.08005
  3  89  20   -150.08005
  3  104  38   -150.08005
END PERIOD

BEGIN PERIOD 139
  3  29  50   -150.02520
  3  35  41   -150.02520
  3  62  44   -150.02520
  3  80  32   -150.02520
  3  89  20   -150.02520
  3  104  38   -150.02520
END PERIOD

BEGIN PERIOD 140
  3  29  50   -150.06458
  3  35  41   -150.06458
  3  62  44   -150.06458
  3  80  32   -150.06458
  3  89  20   -150.06458
  3  104  38   -150.06458
END PERIOD

BEGIN PERIOD 141
  3  29  50   -150.07190
  3  35  41   -150.07190
  3  62  44   -150.07190
  3  80  32   -150.07190
  3  89  20   -150.07190
  3  104  38   -150.07190
END PERIOD

BEGIN PERIOD 142
  3  29  50   -150.12862
  3  35  41   -150.12862
  3  62  44   -150.12862
  3  80  32   -150.12862
  3  89  20   -150.12862
  3  104  38   -150.12862
END PERIOD

BEGIN PERIOD 143
  3  29  50   -150.04692
  3  35  41   -150.04692
  3  62  44   -150.04692
  3  80  32   -150.04692
  3  89  20   -150.04692
  3  104  38   -150.04692
END PERIOD

BEGIN PERIOD 144
  3  29  50   -150.01318
  3  35  41   -150.01318
  3  62  44   -150.01318
  3  80  32   -150.01318
  3  89  20   -150.01318
  3  104  38   -150.01318
END PERIOD

BEGIN PERIOD 145
  3  29  50   -150.11790
  3  35  41   -150.11790
  3  62  44   -150.11790
  3  80  32   -150.11790
  3  89  20   -150.11790
  3  104  38   -150.11790
END PERIOD

BEGIN PERIOD 146
  3  29  50   -150.14879
  3  35  41   -150.14879
  3  62  44   -150.14879
  3  80  32   -150.14879
  3  89  20   -150.14879
  3  104  38   -150.14879
END PERIOD

BEGIN PERIOD 147
  3  29  50   -150.03557
  3  35  41   -150.03557
  3  62  44   -150.03557
  3  80  32   -150.03557
  3  89  20   -150.03557
  3  104  38   -150.03557
END PERIOD

BEGIN PERIOD 148
  3  29  50   -150.08238
  3  35  41   -150.08238
  3  62  44   -150.08238
  3  80  32   -150.08238
  3  89  20   -150.08238
  3  104  38   -150.08238
END PERIOD

BEGIN PERIOD 149
  3  29  50   -150.13727
  3  35  41   -150.13727
  3  62  44   -150.13727
  3  80  32   -150.13727
  3  89  20   -150.13727
  3  104  38   -150.13727
END PERIOD

BEGIN PERIOD 150
  3  29  50   -150.03276
  3  35  41   -150.03276
  3  62  44   -150.03276
  3  80  32   -150.03276
  3  89  20   -150.03276
  3  104  38   -150.03276
END PERIOD

BEGIN PERIOD 151
  3  29  50   -150.02443
  3  35  41   -150.02443
  3  62  44   -150.02443
  3  80  32   -150.02443
  3  89  20   -150.02443
  3  104  38   -150.02443
END PERIOD

BEGIN PERIOD 152
  3  29  50   -150.13435
  3  35  41   -150.13435
  3  62  44   -150.13435
  3  80  32   -150.13435
  3  89  20   -150.13435
  3  104  38   -150.13435
END PERIOD

BEGIN PERIOD 153
  3  29  50   -150.11337
  3  35  41   -150.11337
  3  62  44   -150.11337
  3  80  32   -150.11337
  3  89  20   -150.11337
  3  104  38   -150.11337
END PERIOD

BEGIN PERIOD 154
  3  29  50   -150.03197
  3  35  41   -150.03197
  3  62  44   -150.03197
  3  80  32   -150.03197
  3  89  20   -150.03197
  3  104  38   -150.03197
END PERIOD

BEGIN PERIOD 155
  3  29  50   -150.00560
  3  35  41   -150.00560
  3  62  44   -150.00560
  3  80  32   -150.00560
  3  89  20   -150.00560
  3  104  38   -150.00560
END PERIOD

BEGIN PERIOD 156
  3  29  50   -150.06671
  3  35  41   -150.06671
  3  62  44   -150.06671
  3  80  32   -150.06671
  3  89  20   -150.06671
  3  104  38   -150.06671
END PERIOD

BEGIN PERIOD 157
  3  29  50   -150.09074
  3  35  41   -150.09074
  3  62  44   -150.09074
  3  80  32   -150.09074
  3  89  20   -150.09074
  3  104  38   -150.09074
END PERIOD

BEGIN PERIOD 158
  3  29  50   -150.11707
  3  35  41   -150.11707
  3  62  44   -150.11707
  3  80  32   -150.11707
  3  89  20   -150.11707
  3  104  38   -150.11707
END PERIOD

BEGIN PERIOD 159
  3  29  50   -150.11490
  3  35  41   -150.11490
  3  62  44   -150.11490
  3  80  32   -150.11490
  3  89  20   -150.11490
  3  104  38   -150.11490
END PERIOD

BEGIN PERIOD 160
  3  29  50   -150.08257
  3  35  41   -150.08257
  3  62  44   -150.08257
  3  80  32   -150.08257
  3  89  20   -150.08257
  3  104  38   -150.08257
END PERIOD

BEGIN PERIOD 161
  3  29  50   -150.05298
  3  35  41   -150.05298
  3  62  44   -150.05298
  3  80  32   -150.05298
  3  89  20   -150.05298
  3  104  38   -150.05298
END PERIOD

BEGIN PERIOD 162
  3  29  50   -150.09393
  3  35  41   -150.09393
  3  62  44   -150.09393
  3  80  32   -150.09393
  3  89  20   -150.09393
  3  104  38   -150.09393
END PERIOD

BEGIN PERIOD 163
  3  29  50   -150.01625
  3  35  41   -150.01625
  3  62  44   -150.01625
  3  80  32   -150.01625
  3  89  20   -150.01625
  3  104  38   -150.01625
END PERIOD

BEGIN PERIOD 164
  3  29  50   -150.13774
  3  35  41   -150.13774
  3  62  44   -150.13774
  3  80  32   -150.13774
  3  89  20   -150.13774
  3  104  38   -150.13774
END PERIOD

BEGIN PERIOD 165
  3  29  50   -150.13522
  3  35  41   -150.13522
  3  62  44   -150.13522
  3  80  32   -150.13522
  3  89  20   -150.13522
  3  104  38   -150.13522
END PERIOD

BEGIN PERIOD 166
  3  29  50   -150.07466
  3  35  41   -150.07466
  3  62  44   -150.07466
  3  80  32   -150.07466
  3  89  20   -150.07466
  3  104  38   -150.07466
END PERIOD

BEGIN PERIOD 167
  3  29  50   -150.03525