# OC6 input file, prepared by MF5to6 on 6/30/2020 at 17:28:57.

BEGIN Options
  BUDGET FILEOUT  freyberg6_freyberg.cbc
  HEAD FILEOUT  freyberg6_freyberg.hds
  HEAD PRINT_FORMAT  COLUMNS 10  WIDTH 11  DIGITS 4  GENERAL             
END Options

BEGIN PERIOD 1
  SAVE BUDGET ALL
  PRINT BUDGET ALL
  SAVE HEAD ALL
END PERIOD
