# SFR6 input file, prepared by MF5to6 on 6/30/2020 at 16:37:44.

BEGIN Options
  PRINT_INPUT
  SAVE_FLOWS
  MAXIMUM_DEPTH_CHANGE   0.10000000E-03
  UNIT_CONVERSION    86400.000    
END Options

BEGIN Dimensions
  NREACHES  40
END Dimensions

BEGIN PACKAGEDATA
  # rno cellid rlen           rwid            rgrd            rbtp            rbth            rbhk             man       ncon  ustrf  ndv
  1 1 1 16    250.0000        5.000000       0.5000000E-04    34.00000        1.000000       0.1000000       0.3000000E-01  1  1.0000  0
  2 1 2 16    250.0000        5.000000       0.5000000E-04    33.98718        1.000000       0.1000000       0.3000000E-01  2  1.0000  0
  3 1 3 16    250.0000        5.000000       0.5000000E-04    33.97436        1.000000       0.1000000       0.3000000E-01  2  1.0000  0
  4 1 4 16    250.0000        5.000000       0.5000000E-04    33.96154        1.000000       0.1000000       0.3000000E-01  2  1.0000  0
  5 1 5 16    250.0000        5.000000       0.5000000E-04    33.94872        1.000000       0.1000000       0.3000000E-01  2  1.0000  0
  6 1 6 16    250.0000        5.000000       0.5000000E-04    33.93590        1.000000       0.1000000       0.3000000E-01  2  1.0000  0
  7 1 7 16    250.0000        5.000000       0.5000000E-04    33.92308        1.000000       0.1000000       0.3000000E-01  2  1.0000  0
  8 1 8 16    250.0000        5.000000       0.5000000E-04    33.91026        1.000000       0.1000000       0.3000000E-01  2  1.0000  0
  9 1 9 16    250.0000        5.000000       0.5000000E-04    33.89743        1.000000       0.1000000       0.3000000E-01  2  1.0000  0
  10 1 10 16    250.0000        5.000000       0.5000000E-04    33.88462        1.000000       0.1000000       0.3000000E-01  2  1.0000  0
  11 1 11 16    250.0000        5.000000       0.5000000E-04    33.87180        1.000000       0.1000000       0.3000000E-01  2  1.0000  0
  12 1 12 16    250.0000        5.000000       0.5000000E-04    33.85897        1.000000       0.1000000       0.3000000E-01  2  1.0000  0
  13 1 13 16    250.0000        5.000000       0.5000000E-04    33.84615        1.000000       0.1000000       0.3000000E-01  2  1.0000  0
  14 1 14 16    250.0000        5.000000       0.5000000E-04    33.83333        1.000000       0.1000000       0.3000000E-01  2  1.0000  0
  15 1 15 16    250.0000        5.000000       0.5000000E-04    33.82051        1.000000       0.1000000       0.3000000E-01  2  1.0000  0
  16 1 16 16    250.0000        5.000000       0.5000000E-04    33.80769        1.000000       0.1000000       0.3000000E-01  2  1.0000  0
  17 1 17 16    250.0000        5.000000       0.5000000E-04    33.79487        1.000000       0.1000000       0.3000000E-01  2  1.0000  0
  18 1 18 16    250.0000        5.000000       0.5000000E-04    33.78205        1.000000       0.1000000       0.3000000E-01  2  1.0000  0
  19 1 19 16    250.0000        5.000000       0.5000000E-04    33.76923        1.000000       0.1000000       0.3000000E-01  2  1.0000  0
  20 1 20 16    250.0000        5.000000       0.5000000E-04    33.75641        1.000000       0.1000000       0.3000000E-01  2  1.0000  0
  21 1 21 16    250.0000        5.000000       0.5000000E-04    33.74359        1.000000       0.1000000       0.3000000E-01  2  1.0000  0
  22 1 22 16    250.0000        5.000000       0.5000000E-04    33.73077        1.000000       0.1000000       0.3000000E-01  2  1.0000  0
  23 1 23 16    250.0000        5.000000       0.5000000E-04    33.71795        1.000000       0.1000000       0.3000000E-01  2  1.0000  0
  24 1 24 16    250.0000        5.000000       0.5000000E-04    33.70513        1.000000       0.1000000       0.3000000E-01  2  1.0000  0
  25 1 25 16    250.0000        5.000000       0.5000000E-04    33.69231        1.000000       0.1000000       0.3000000E-01  2  1.0000  0
  26 1 26 16    250.0000        5.000000       0.5000000E-04    33.67949        1.000000       0.1000000       0.3000000E-01  2  1.0000  0
  27 1 27 16    250.0000        5.000000       0.5000000E-04    33.66667        1.000000       0.1000000       0.3000000E-01  2  1.0000  0
  28 1 28 16    250.0000        5.000000       0.5000000E-04    33.65385        1.000000       0.1000000       0.3000000E-01  2  1.0000  0
  29 1 29 16    250.0000        5.000000       0.5000000E-04    33.64103        1.000000       0.1000000       0.3000000E-01  2  1.0000  0
  30 1 30 16    250.0000        5.000000       0.5000000E-04    33.62820        1.000000       0.1000000       0.3000000E-01  2  1.0000  0
  31 1 31 16    250.0000        5.000000       0.5000000E-04    33.61538        1.000000       0.1000000       0.3000000E-01  2  1.0000  0
  32 1 32 16    250.0000        5.000000       0.5000000E-04    33.60257        1.000000       0.1000000       0.3000000E-01  2  1.0000  0
  33 1 33 16    250.0000        5.000000       0.5000000E-04    33.58974        1.000000       0.1000000       0.3000000E-01  2  1.0000  0
  34 1 34 16    250.0000        5.000000       0.5000000E-04    33.57692        1.000000       0.1000000       0.3000000E-01  2  1.0000  0
  35 1 35 16    250.0000        5.000000       0.5000000E-04    33.56410        1.000000       0.1000000       0.3000000E-01  2  1.0000  0
  36 1 36 16    250.0000        5.000000       0.5000000E-04    33.55128        1.000000       0.1000000       0.3000000E-01  2  1.0000  0
  37 1 37 16    250.0000        5.000000       0.5000000E-04    33.53846        1.000000       0.1000000       0.3000000E-01  2  1.0000  0
  38 1 38 16    250.0000        5.000000       0.5000000E-04    33.52564        1.000000       0.1000000       0.3000000E-01  2  1.0000  0
  39 1 39 16    250.0000        5.000000       0.5000000E-04    33.51282        1.000000       0.1000000       0.3000000E-01  2  1.0000  0
  40 1 40 16    250.0000        5.000000       0.5000000E-04    33.51000        1.000000       0.1000000       0.3000000E-01  1  1.0000  0
END PACKAGEDATA

BEGIN CONNECTIONDATA
  1 -2
  2 1 -3
  3 2 -4
  4 3 -5
  5 4 -6
  6 5 -7
  7 6 -8
  8 7 -9
  9 8 -10
  10 9 -11
  11 10 -12
  12 11 -13
  13 12 -14
  14 13 -15
  15 14 -16
  16 15 -17
  17 16 -18
  18 17 -19
  19 18 -20
  20 19 -21
  21 20 -22
  22 21 -23
  23 22 -24
  24 23 -25
  25 24 -26
  26 25 -27
  27 26 -28
  28 27 -29
  29 28 -30
  30 29 -31
  31 30 -32
  32 31 -33
  33 32 -34
  34 33 -35
  35 34 -36
  36 35 -37
  37 36 -38
  38 37 -39
  39 38 -40
  40 39
END CONNECTIONDATA

BEGIN PERIOD 1
1 inflow   100.000000000000
END PERIOD

BEGIN PERIOD 2
1 inflow   154.695617675781
END PERIOD

BEGIN PERIOD 3
1 inflow   164.980606079102
END PERIOD

BEGIN PERIOD 4
1 inflow   156.345764160156
END PERIOD

BEGIN PERIOD 5
1 inflow   131.305221557617
END PERIOD

BEGIN PERIOD 6
1 inflow   97.1498107910156
END PERIOD

BEGIN PERIOD 7
1 inflow   63.8242721557617
END PERIOD

BEGIN PERIOD 8
1 inflow   41.0316963195801
END PERIOD

BEGIN PERIOD 9
1 inflow   35.4084091186523
END PERIOD

BEGIN PERIOD 10
1 inflow   48.5916786193848
END PERIOD

BEGIN PERIOD 11
1 inflow   76.7430572509766
END PERIOD

BEGIN PERIOD 12
1 inflow   111.665962219238
END PERIOD

BEGIN PERIOD 13
1 inflow   143.192184448242
END PERIOD

BEGIN PERIOD 14
1 inflow   162.142517089844
END PERIOD

BEGIN PERIOD 15
1 inflow   162.999374389648
END PERIOD

BEGIN PERIOD 16
1 inflow   145.513229370117
END PERIOD

BEGIN PERIOD 17
1 inflow   114.775428771973
END PERIOD

BEGIN PERIOD 18
1 inflow   79.7355804443359
END PERIOD

BEGIN PERIOD 19
1 inflow   50.5959510803223
END PERIOD

BEGIN PERIOD 20
1 inflow   35.8408584594727
END PERIOD

BEGIN PERIOD 21
1 inflow   39.7664184570312
END PERIOD

BEGIN PERIOD 22
1 inflow   61.2296638488770
END PERIOD

BEGIN PERIOD 23
1 inflow   93.9813232421875
END PERIOD

BEGIN PERIOD 24
1 inflow   128.485382080078
END PERIOD

BEGIN PERIOD 25
1 inflow   154.695617675781
END PERIOD
