# SFR package for  MODFLOW-NWT, generated by Flopy.
REACHINPUT
40 40 0 0 86400.00000000 0.00010000 50 60 1 
1 1 16 1 1 250.0 34.0 5e-05 1.0 0.1
1 2 16 2 1 250.0 33.98718 5e-05 1.0 0.1
1 3 16 3 1 250.0 33.974358 5e-05 1.0 0.1
1 4 16 4 1 250.0 33.96154 5e-05 1.0 0.1
1 5 16 5 1 250.0 33.94872 5e-05 1.0 0.1
1 6 16 6 1 250.0 33.935898 5e-05 1.0 0.1
1 7 16 7 1 250.0 33.923077 5e-05 1.0 0.1
1 8 16 8 1 250.0 33.910255 5e-05 1.0 0.1
1 9 16 9 1 250.0 33.897434 5e-05 1.0 0.1
1 10 16 10 1 250.0 33.884617 5e-05 1.0 0.1
1 11 16 11 1 250.0 33.871796 5e-05 1.0 0.1
1 12 16 12 1 250.0 33.858974 5e-05 1.0 0.1
1 13 16 13 1 250.0 33.846153 5e-05 1.0 0.1
1 14 16 14 1 250.0 33.833332 5e-05 1.0 0.1
1 15 16 15 1 250.0 33.820515 5e-05 1.0 0.1
1 16 16 16 1 250.0 33.807693 5e-05 1.0 0.1
1 17 16 17 1 250.0 33.794872 5e-05 1.0 0.1
1 18 16 18 1 250.0 33.78205 5e-05 1.0 0.1
1 19 16 19 1 250.0 33.76923 5e-05 1.0 0.1
1 20 16 20 1 250.0 33.75641 5e-05 1.0 0.1
1 21 16 21 1 250.0 33.74359 5e-05 1.0 0.1
1 22 16 22 1 250.0 33.73077 5e-05 1.0 0.1
1 23 16 23 1 250.0 33.71795 5e-05 1.0 0.1
1 24 16 24 1 250.0 33.705128 5e-05 1.0 0.1
1 25 16 25 1 250.0 33.692307 5e-05 1.0 0.1
1 26 16 26 1 250.0 33.679485 5e-05 1.0 0.1
1 27 16 27 1 250.0 33.666668 5e-05 1.0 0.1
1 28 16 28 1 250.0 33.653847 5e-05 1.0 0.1
1 29 16 29 1 250.0 33.641026 5e-05 1.0 0.1
1 30 16 30 1 250.0 33.628204 5e-05 1.0 0.1
1 31 16 31 1 250.0 33.615383 5e-05 1.0 0.1
1 32 16 32 1 250.0 33.602566 5e-05 1.0 0.1
1 33 16 33 1 250.0 33.589745 5e-05 1.0 0.1
1 34 16 34 1 250.0 33.576923 5e-05 1.0 0.1
1 35 16 35 1 250.0 33.564102 5e-05 1.0 0.1
1 36 16 36 1 250.0 33.55128 5e-05 1.0 0.1
1 37 16 37 1 250.0 33.53846 5e-05 1.0 0.1
1 38 16 38 1 250.0 33.525642 5e-05 1.0 0.1
1 39 16 39 1 250.0 33.51282 5e-05 1.0 0.1
1 40 16 40 1 250.0 33.51 5e-05 1.0 0.1
40 0 0 0
1 1 2 0 100.0 0 0 0 0.03 
5.0 
5.0 
2 1 3 0 0 0 0 0 0.03 
5.0 
5.0 
3 1 4 0 0 0 0 0 0.03 
5.0 
5.0 
4 1 5 0 0 0 0 0 0.03 
5.0 
5.0 
5 1 6 0 0 0 0 0 0.03 
5.0 
5.0 
6 1 7 0 0 0 0 0 0.03 
5.0 
5.0 
7 1 8 0 0 0 0 0 0.03 
5.0 
5.0 
8 1 9 0 0 0 0 0 0.03 
5.0 
5.0 
9 1 10 0 0 0 0 0 0.03 
5.0 
5.0 
10 1 11 0 0 0 0 0 0.03 
5.0 
5.0 
11 1 12 0 0 0 0 0 0.03 
5.0 
5.0 
12 1 13 0 0 0 0 0 0.03 
5.0 
5.0 
13 1 14 0 0 0 0 0 0.03 
5.0 
5.0 
14 1 15 0 0 0 0 0 0.03 
5.0 
5.0 
15 1 16 0 0 0 0 0 0.03 
5.0 
5.0 
16 1 17 0 0 0 0 0 0.03 
5.0 
5.0 
17 1 18 0 0 0 0 0 0.03 
5.0 
5.0 
18 1 19 0 0 0 0 0 0.03 
5.0 
5.0 
19 1 20 0 0 0 0 0 0.03 
5.0 
5.0 
20 1 21 0 0 0 0 0 0.03 
5.0 
5.0 
21 1 22 0 0 0 0 0 0.03 
5.0 
5.0 
22 1 23 0 0 0 0 0 0.03 
5.0 
5.0 
23 1 24 0 0 0 0 0 0.03 
5.0 
5.0 
24 1 25 0 0 0 0 0 0.03 
5.0 
5.0 
25 1 26 0 0 0 0 0 0.03 
5.0 
5.0 
26 1 27 0 0 0 0 0 0.03 
5.0 
5.0 
27 1 28 0 0 0 0 0 0.03 
5.0 
5.0 
28 1 29 0 0 0 0 0 0.03 
5.0 
5.0 
29 1 30 0 0 0 0 0 0.03 
5.0 
5.0 
30 1 31 0 0 0 0 0 0.03 
5.0 
5.0 
31 1 32 0 0 0 0 0 0.03 
5.0 
5.0 
32 1 33 0 0 0 0 0 0.03 
5.0 
5.0 
33 1 34 0 0 0 0 0 0.03 
5.0 
5.0 
34 1 35 0 0 0 0 0 0.03 
5.0 
5.0 
35 1 36 0 0 0 0 0 0.03 
5.0 
5.0 
36 1 37 0 0 0 0 0 0.03 
5.0 
5.0 
37 1 38 0 0 0 0 0 0.03 
5.0 
5.0 
38 1 39 0 0 0 0 0 0.03 
5.0 
5.0 
39 1 40 0 0 0 0 0 0.03 
5.0 
5.0 
40 1 0 0 0 0 0 0 0.03 
5.0 
5.0 
40 0 0 0
1 1 2 0 154.69562 0 0 0 0.03 
5.0 
5.0 
2 1 3 0 0 0 0 0 0.03 
5.0 
5.0 
3 1 4 0 0 0 0 0 0.03 
5.0 
5.0 
4 1 5 0 0 0 0 0 0.03 
5.0 
5.0 
5 1 6 0 0 0 0 0 0.03 
5.0 
5.0 
6 1 7 0 0 0 0 0 0.03 
5.0 
5.0 
7 1 8 0 0 0 0 0 0.03 
5.0 
5.0 
8 1 9 0 0 0 0 0 0.03 
5.0 
5.0 
9 1 10 0 0 0 0 0 0.03 
5.0 
5.0 
10 1 11 0 0 0 0 0 0.03 
5.0 
5.0 
11 1 12 0 0 0 0 0 0.03 
5.0 
5.0 
12 1 13 0 0 0 0 0 0.03 
5.0 
5.0 
13 1 14 0 0 0 0 0 0.03 
5.0 
5.0 
14 1 15 0 0 0 0 0 0.03 
5.0 
5.0 
15 1 16 0 0 0 0 0 0.03 
5.0 
5.0 
16 1 17 0 0 0 0 0 0.03 
5.0 
5.0 
17 1 18 0 0 0 0 0 0.03 
5.0 
5.0 
18 1 19 0 0 0 0 0 0.03 
5.0 
5.0 
19 1 20 0 0 0 0 0 0.03 
5.0 
5.0 
20 1 21 0 0 0 0 0 0.03 
5.0 
5.0 
21 1 22 0 0 0 0 0 0.03 
5.0 
5.0 
22 1 23 0 0 0 0 0 0.03 
5.0 
5.0 
23 1 24 0 0 0 0 0 0.03 
5.0 
5.0 
24 1 25 0 0 0 0 0 0.03 
5.0 
5.0 
25 1 26 0 0 0 0 0 0.03 
5.0 
5.0 
26 1 27 0 0 0 0 0 0.03 
5.0 
5.0 
27 1 28 0 0 0 0 0 0.03 
5.0 
5.0 
28 1 29 0 0 0 0 0 0.03 
5.0 
5.0 
29 1 30 0 0 0 0 0 0.03 
5.0 
5.0 
30 1 31 0 0 0 0 0 0.03 
5.0 
5.0 
31 1 32 0 0 0 0 0 0.03 
5.0 
5.0 
32 1 33 0 0 0 0 0 0.03 
5.0 
5.0 
33 1 34 0 0 0 0 0 0.03 
5.0 
5.0 
34 1 35 0 0 0 0 0 0.03 
5.0 
5.0 
35 1 36 0 0 0 0 0 0.03 
5.0 
5.0 
36 1 37 0 0 0 0 0 0.03 
5.0 
5.0 
37 1 38 0 0 0 0 0 0.03 
5.0 
5.0 
38 1 39 0 0 0 0 0 0.03 
5.0 
5.0 
39 1 40 0 0 0 0 0 0.03 
5.0 
5.0 
40 1 0 0 0 0 0 0 0.03 
5.0 
5.0 
40 0 0 0
1 1 2 0 164.9806 0 0 0 0.03 
5.0 
5.0 
2 1 3 0 0 0 0 0 0.03 
5.0 
5.0 
3 1 4 0 0 0 0 0 0.03 
5.0 
5.0 
4 1 5 0 0 0 0 0 0.03 
5.0 
5.0 
5 1 6 0 0 0 0 0 0.03 
5.0 
5.0 
6 1 7 0 0 0 0 0 0.03 
5.0 
5.0 
7 1 8 0 0 0 0 0 0.03 
5.0 
5.0 
8 1 9 0 0 0 0 0 0.03 
5.0 
5.0 
9 1 10 0 0 0 0 0 0.03 
5.0 
5.0 
10 1 11 0 0 0 0 0 0.03 
5.0 
5.0 
11 1 12 0 0 0 0 0 0.03 
5.0 
5.0 
12 1 13 0 0 0 0 0 0.03 
5.0 
5.0 
13 1 14 0 0 0 0 0 0.03 
5.0 
5.0 
14 1 15 0 0 0 0 0 0.03 
5.0 
5.0 
15 1 16 0 0 0 0 0 0.03 
5.0 
5.0 
16 1 17 0 0 0 0 0 0.03 
5.0 
5.0 
17 1 18 0 0 0 0 0 0.03 
5.0 
5.0 
18 1 19 0 0 0 0 0 0.03 
5.0 
5.0 
19 1 20 0 0 0 0 0 0.03 
5.0 
5.0 
20 1 21 0 0 0 0 0 0.03 
5.0 
5.0 
21 1 22 0 0 0 0 0 0.03 
5.0 
5.0 
22 1 23 0 0 0 0 0 0.03 
5.0 
5.0 
23 1 24 0 0 0 0 0 0.03 
5.0 
5.0 
24 1 25 0 0 0 0 0 0.03 
5.0 
5.0 
25 1 26 0 0 0 0 0 0.03 
5.0 
5.0 
26 1 27 0 0 0 0 0 0.03 
5.0 
5.0 
27 1 28 0 0 0 0 0 0.03 
5.0 
5.0 
28 1 29 0 0 0 0 0 0.03 
5.0 
5.0 
29 1 30 0 0 0 0 0 0.03 
5.0 
5.0 
30 1 31 0 0 0 0 0 0.03 
5.0 
5.0 
31 1 32 0 0 0 0 0 0.03 
5.0 
5.0 
32 1 33 0 0 0 0 0 0.03 
5.0 
5.0 
33 1 34 0 0 0 0 0 0.03 
5.0 
5.0 
34 1 35 0 0 0 0 0 0.03 
5.0 
5.0 
35 1 36 0 0 0 0 0 0.03 
5.0 
5.0 
36 1 37 0 0 0 0 0 0.03 
5.0 
5.0 
37 1 38 0 0 0 0 0 0.03 
5.0 
5.0 
38 1 39 0 0 0 0 0 0.03 
5.0 
5.0 
39 1 40 0 0 0 0 0 0.03 
5.0 
5.0 
40 1 0 0 0 0 0 0 0.03 
5.0 
5.0 
40 0 0 0
1 1 2 0 156.34576 0 0 0 0.03 
5.0 
5.0 
2 1 3 0 0 0 0 0 0.03 
5.0 
5.0 
3 1 4 0 0 0 0 0 0.03 
5.0 
5.0 
4 1 5 0 0 0 0 0 0.03 
5.0 
5.0 
5 1 6 0 0 0 0 0 0.03 
5.0 
5.0 
6 1 7 0 0 0 0 0 0.03 
5.0 
5.0 
7 1 8 0 0 0 0 0 0.03 
5.0 
5.0 
8 1 9 0 0 0 0 0 0.03 
5.0 
5.0 
9 1 10 0 0 0 0 0 0.03 
5.0 
5.0 
10 1 11 0 0 0 0 0 0.03 
5.0 
5.0 
11 1 12 0 0 0 0 0 0.03 
5.0 
5.0 
12 1 13 0 0 0 0 0 0.03 
5.0 
5.0 
13 1 14 0 0 0 0 0 0.03 
5.0 
5.0 
14 1 15 0 0 0 0 0 0.03 
5.0 
5.0 
15 1 16 0 0 0 0 0 0.03 
5.0 
5.0 
16 1 17 0 0 0 0 0 0.03 
5.0 
5.0 
17 1 18 0 0 0 0 0 0.03 
5.0 
5.0 
18 1 19 0 0 0 0 0 0.03 
5.0 
5.0 
19 1 20 0 0 0 0 0 0.03 
5.0 
5.0 
20 1 21 0 0 0 0 0 0.03 
5.0 
5.0 
21 1 22 0 0 0 0 0 0.03 
5.0 
5.0 
22 1 23 0 0 0 0 0 0.03 
5.0 
5.0 
23 1 24 0 0 0 0 0 0.03 
5.0 
5.0 
24 1 25 0 0 0 0 0 0.03 
5.0 
5.0 
25 1 26 0 0 0 0 0 0.03 
5.0 
5.0 
26 1 27 0 0 0 0 0 0.03 
5.0 
5.0 
27 1 28 0 0 0 0 0 0.03 
5.0 
5.0 
28 1 29 0 0 0 0 0 0.03 
5.0 
5.0 
29 1 30 0 0 0 0 0 0.03 
5.0 
5.0 
30 1 31 0 0 0 0 0 0.03 
5.0 
5.0 
31 1 32 0 0 0 0 0 0.03 
5.0 
5.0 
32 1 33 0 0 0 0 0 0.03 
5.0 
5.0 
33 1 34 0 0 0 0 0 0.03 
5.0 
5.0 
34 1 35 0 0 0 0 0 0.03 
5.0 
5.0 
35 1 36 0 0 0 0 0 0.03 
5.0 
5.0 
36 1 37 0 0 0 0 0 0.03 
5.0 
5.0 
37 1 38 0 0 0 0 0 0.03 
5.0 
5.0 
38 1 39 0 0 0 0 0 0.03 
5.0 
5.0 
39 1 40 0 0 0 0 0 0.03 
5.0 
5.0 
40 1 0 0 0 0 0 0 0.03 
5.0 
5.0 
40 0 0 0
1 1 2 0 131.30522 0 0 0 0.03 
5.0 
5.0 
2 1 3 0 0 0 0 0 0.03 
5.0 
5.0 
3 1 4 0 0 0 0 0 0.03 
5.0 
5.0 
4 1 5 0 0 0 0 0 0.03 
5.0 
5.0 
5 1 6 0 0 0 0 0 0.03 
5.0 
5.0 
6 1 7 0 0 0 0 0 0.03 
5.0 
5.0 
7 1 8 0 0 0 0 0 0.03 
5.0 
5.0 
8 1 9 0 0 0 0 0 0.03 
5.0 
5.0 
9 1 10 0 0 0 0 0 0.03 
5.0 
5.0 
10 1 11 0 0 0 0 0 0.03 
5.0 
5.0 
11 1 12 0 0 0 0 0 0.03 
5.0 
5.0 
12 1 13 0 0 0 0 0 0.03 
5.0 
5.0 
13 1 14 0 0 0 0 0 0.03 
5.0 
5.0 
14 1 15 0 0 0 0 0 0.03 
5.0 
5.0 
15 1 16 0 0 0 0 0 0.03 
5.0 
5.0 
16 1 17 0 0 0 0 0 0.03 
5.0 
5.0 
17 1 18 0 0 0 0 0 0.03 
5.0 
5.0 
18 1 19 0 0 0 0 0 0.03 
5.0 
5.0 
19 1 20 0 0 0 0 0 0.03 
5.0 
5.0 
20 1 21 0 0 0 0 0 0.03 
5.0 
5.0 
21 1 22 0 0 0 0 0 0.03 
5.0 
5.0 
22 1 23 0 0 0 0 0 0.03 
5.0 
5.0 
23 1 24 0 0 0 0 0 0.03 
5.0 
5.0 
24 1 25 0 0 0 0 0 0.03 
5.0 
5.0 
25 1 26 0 0 0 0 0 0.03 
5.0 
5.0 
26 1 27 0 0 0 0 0 0.03 
5.0 
5.0 
27 1 28 0 0 0 0 0 0.03 
5.0 
5.0 
28 1 29 0 0 0 0 0 0.03 
5.0 
5.0 
29 1 30 0 0 0 0 0 0.03 
5.0 
5.0 
30 1 31 0 0 0 0 0 0.03 
5.0 
5.0 
31 1 32 0 0 0 0 0 0.03 
5.0 
5.0 
32 1 33 0 0 0 0 0 0.03 
5.0 
5.0 
33 1 34 0 0 0 0 0 0.03 
5.0 
5.0 
34 1 35 0 0 0 0 0 0.03 
5.0 
5.0 
35 1 36 0 0 0 0 0 0.03 
5.0 
5.0 
36 1 37 0 0 0 0 0 0.03 
5.0 
5.0 
37 1 38 0 0 0 0 0 0.03 
5.0 
5.0 
38 1 39 0 0 0 0 0 0.03 
5.0 
5.0 
39 1 40 0 0 0 0 0 0.03 
5.0 
5.0 
40 1 0 0 0 0 0 0 0.03 
5.0 
5.0 
40 0 0 0
1 1 2 0 97.14981 0 0 0 0.03 
5.0 
5.0 
2 1 3 0 0 0 0 0 0.03 
5.0 
5.0 
3 1 4 0 0 0 0 0 0.03 
5.0 
5.0 
4 1 5 0 0 0 0 0 0.03 
5.0 
5.0 
5 1 6 0 0 0 0 0 0.03 
5.0 
5.0 
6 1 7 0 0 0 0 0 0.03 
5.0 
5.0 
7 1 8 0 0 0 0 0 0.03 
5.0 
5.0 
8 1 9 0 0 0 0 0 0.03 
5.0 
5.0 
9 1 10 0 0 0 0 0 0.03 
5.0 
5.0 
10 1 11 0 0 0 0 0 0.03 
5.0 
5.0 
11 1 12 0 0 0 0 0 0.03 
5.0 
5.0 
12 1 13 0 0 0 0 0 0.03 
5.0 
5.0 
13 1 14 0 0 0 0 0 0.03 
5.0 
5.0 
14 1 15 0 0 0 0 0 0.03 
5.0 
5.0 
15 1 16 0 0 0 0 0 0.03 
5.0 
5.0 
16 1 17 0 0 0 0 0 0.03 
5.0 
5.0 
17 1 18 0 0 0 0 0 0.03 
5.0 
5.0 
18 1 19 0 0 0 0 0 0.03 
5.0 
5.0 
19 1 20 0 0 0 0 0 0.03 
5.0 
5.0 
20 1 21 0 0 0 0 0 0.03 
5.0 
5.0 
21 1 22 0 0 0 0 0 0.03 
5.0 
5.0 
22 1 23 0 0 0 0 0 0.03 
5.0 
5.0 
23 1 24 0 0 0 0 0 0.03 
5.0 
5.0 
24 1 25 0 0 0 0 0 0.03 
5.0 
5.0 
25 1 26 0 0 0 0 0 0.03 
5.0 
5.0 
26 1 27 0 0 0 0 0 0.03 
5.0 
5.0 
27 1 28 0 0 0 0 0 0.03 
5.0 
5.0 
28 1 29 0 0 0 0 0 0.03 
5.0 
5.0 
29 1 30 0 0 0 0 0 0.03 
5.0 
5.0 
30 1 31 0 0 0 0 0 0.03 
5.0 
5.0 
31 1 32 0 0 0 0 0 0.03 
5.0 
5.0 
32 1 33 0 0 0 0 0 0.03 
5.0 
5.0 
33 1 34 0 0 0 0 0 0.03 
5.0 
5.0 
34 1 35 0 0 0 0 0 0.03 
5.0 
5.0 
35 1 36 0 0 0 0 0 0.03 
5.0 
5.0 
36 1 37 0 0 0 0 0 0.03 
5.0 
5.0 
37 1 38 0 0 0 0 0 0.03 
5.0 
5.0 
38 1 39 0 0 0 0 0 0.03 
5.0 
5.0 
39 1 40 0 0 0 0 0 0.03 
5.0 
5.0 
40 1 0 0 0 0 0 0 0.03 
5.0 
5.0 
40 0 0 0
1 1 2 0 63.824272 0 0 0 0.03 
5.0 
5.0 
2 1 3 0 0 0 0 0 0.03 
5.0 
5.0 
3 1 4 0 0 0 0 0 0.03 
5.0 
5.0 
4 1 5 0 0 0 0 0 0.03 
5.0 
5.0 
5 1 6 0 0 0 0 0 0.03 
5.0 
5.0 
6 1 7 0 0 0 0 0 0.03 
5.0 
5.0 
7 1 8 0 0 0 0 0 0.03 
5.0 
5.0 
8 1 9 0 0 0 0 0 0.03 
5.0 
5.0 
9 1 10 0 0 0 0 0 0.03 
5.0 
5.0 
10 1 11 0 0 0 0 0 0.03 
5.0 
5.0 
11 1 12 0 0 0 0 0 0.03 
5.0 
5.0 
12 1 13 0 0 0 0 0 0.03 
5.0 
5.0 
13 1 14 0 0 0 0 0 0.03 
5.0 
5.0 
14 1 15 0 0 0 0 0 0.03 
5.0 
5.0 
15 1 16 0 0 0 0 0 0.03 
5.0 
5.0 
16 1 17 0 0 0 0 0 0.03 
5.0 
5.0 
17 1 18 0 0 0 0 0 0.03 
5.0 
5.0 
18 1 19 0 0 0 0 0 0.03 
5.0 
5.0 
19 1 20 0 0 0 0 0 0.03 
5.0 
5.0 
20 1 21 0 0 0 0 0 0.03 
5.0 
5.0 
21 1 22 0 0 0 0 0 0.03 
5.0 
5.0 
22 1 23 0 0 0 0 0 0.03 
5.0 
5.0 
23 1 24 0 0 0 0 0 0.03 
5.0 
5.0 
24 1 25 0 0 0 0 0 0.03 
5.0 
5.0 
25 1 26 0 0 0 0 0 0.03 
5.0 
5.0 
26 1 27 0 0 0 0 0 0.03 
5.0 
5.0 
27 1 28 0 0 0 0 0 0.03 
5.0 
5.0 
28 1 29 0 0 0 0 0 0.03 
5.0 
5.0 
29 1 30 0 0 0 0 0 0.03 
5.0 
5.0 
30 1 31 0 0 0 0 0 0.03 
5.0 
5.0 
31 1 32 0 0 0 0 0 0.03 
5.0 
5.0 
32 1 33 0 0 0 0 0 0.03 
5.0 
5.0 
33 1 34 0 0 0 0 0 0.03 
5.0 
5.0 
34 1 35 0 0 0 0 0 0.03 
5.0 
5.0 
35 1 36 0 0 0 0 0 0.03 
5.0 
5.0 
36 1 37 0 0 0 0 0 0.03 
5.0 
5.0 
37 1 38 0 0 0 0 0 0.03 
5.0 
5.0 
38 1 39 0 0 0 0 0 0.03 
5.0 
5.0 
39 1 40 0 0 0 0 0 0.03 
5.0 
5.0 
40 1 0 0 0 0 0 0 0.03 
5.0 
5.0 
40 0 0 0
1 1 2 0 41.031696 0 0 0 0.03 
5.0 
5.0 
2 1 3 0 0 0 0 0 0.03 
5.0 
5.0 
3 1 4 0 0 0 0 0 0.03 
5.0 
5.0 
4 1 5 0 0 0 0 0 0.03 
5.0 
5.0 
5 1 6 0 0 0 0 0 0.03 
5.0 
5.0 
6 1 7 0 0 0 0 0 0.03 
5.0 
5.0 
7 1 8 0 0 0 0 0 0.03 
5.0 
5.0 
8 1 9 0 0 0 0 0 0.03 
5.0 
5.0 
9 1 10 0 0 0 0 0 0.03 
5.0 
5.0 
10 1 11 0 0 0 0 0 0.03 
5.0 
5.0 
11 1 12 0 0 0 0 0 0.03 
5.0 
5.0 
12 1 13 0 0 0 0 0 0.03 
5.0 
5.0 
13 1 14 0 0 0 0 0 0.03 
5.0 
5.0 
14 1 15 0 0 0 0 0 0.03 
5.0 
5.0 
15 1 16 0 0 0 0 0 0.03 
5.0 
5.0 
16 1 17 0 0 0 0 0 0.03 
5.0 
5.0 
17 1 18 0 0 0 0 0 0.03 
5.0 
5.0 
18 1 19 0 0 0 0 0 0.03 
5.0 
5.0 
19 1 20 0 0 0 0 0 0.03 
5.0 
5.0 
20 1 21 0 0 0 0 0 0.03 
5.0 
5.0 
21 1 22 0 0 0 0 0 0.03 
5.0 
5.0 
22 1 23 0 0 0 0 0 0.03 
5.0 
5.0 
23 1 24 0 0 0 0 0 0.03 
5.0 
5.0 
24 1 25 0 0 0 0 0 0.03 
5.0 
5.0 
25 1 26 0 0 0 0 0 0.03 
5.0 
5.0 
26 1 27 0 0 0 0 0 0.03 
5.0 
5.0 
27 1 28 0 0 0 0 0 0.03 
5.0 
5.0 
28 1 29 0 0 0 0 0 0.03 
5.0 
5.0 
29 1 30 0 0 0 0 0 0.03 
5.0 
5.0 
30 1 31 0 0 0 0 0 0.03 
5.0 
5.0 
31 1 32 0 0 0 0 0 0.03 
5.0 
5.0 
32 1 33 0 0 0 0 0 0.03 
5.0 
5.0 
33 1 34 0 0 0 0 0 0.03 
5.0 
5.0 
34 1 35 0 0 0 0 0 0.03 
5.0 
5.0 
35 1 36 0 0 0 0 0 0.03 
5.0 
5.0 
36 1 37 0 0 0 0 0 0.03 
5.0 
5.0 
37 1 38 0 0 0 0 0 0.03 
5.0 
5.0 
38 1 39 0 0 0 0 0 0.03 
5.0 
5.0 
39 1 40 0 0 0 0 0 0.03 
5.0 
5.0 
40 1 0 0 0 0 0 0 0.03 
5.0 
5.0 
40 0 0 0
1 1 2 0 35.40841 0 0 0 0.03 
5.0 
5.0 
2 1 3 0 0 0 0 0 0.03 
5.0 
5.0 
3 1 4 0 0 0 0 0 0.03 
5.0 
5.0 
4 1 5 0 0 0 0 0 0.03 
5.0 
5.0 
5 1 6 0 0 0 0 0 0.03 
5.0 
5.0 
6 1 7 0 0 0 0 0 0.03 
5.0 
5.0 
7 1 8 0 0 0 0 0 0.03 
5.0 
5.0 
8 1 9 0 0 0 0 0 0.03 
5.0 
5.0 
9 1 10 0 0 0 0 0 0.03 
5.0 
5.0 
10 1 11 0 0 0 0 0 0.03 
5.0 
5.0 
11 1 12 0 0 0 0 0 0.03 
5.0 
5.0 
12 1 13 0 0 0 0 0 0.03 
5.0 
5.0 
13 1 14 0 0 0 0 0 0.03 
5.0 
5.0 
14 1 15 0 0 0 0 0 0.03 
5.0 
5.0 
15 1 16 0 0 0 0 0 0.03 
5.0 
5.0 
16 1 17 0 0 0 0 0 0.03 
5.0 
5.0 
17 1 18 0 0 0 0 0 0.03 
5.0 
5.0 
18 1 19 0 0 0 0 0 0.03 
5.0 
5.0 
19 1 20 0 0 0 0 0 0.03 
5.0 
5.0 
20 1 21 0 0 0 0 0 0.03 
5.0 
5.0 
21 1 22 0 0 0 0 0 0.03 
5.0 
5.0 
22 1 23 0 0 0 0 0 0.03 
5.0 
5.0 
23 1 24 0 0 0 0 0 0.03 
5.0 
5.0 
24 1 25 0 0 0 0 0 0.03 
5.0 
5.0 
25 1 26 0 0 0 0 0 0.03 
5.0 
5.0 
26 1 27 0 0 0 0 0 0.03 
5.0 
5.0 
27 1 28 0 0 0 0 0 0.03 
5.0 
5.0 
28 1 29 0 0 0 0 0 0.03 
5.0 
5.0 
29 1 30 0 0 0 0 0 0.03 
5.0 
5.0 
30 1 31 0 0 0 0 0 0.03 
5.0 
5.0 
31 1 32 0 0 0 0 0 0.03 
5.0 
5.0 
32 1 33 0 0 0 0 0 0.03 
5.0 
5.0 
33 1 34 0 0 0 0 0 0.03 
5.0 
5.0 
34 1 35 0 0 0 0 0 0.03 
5.0 
5.0 
35 1 36 0 0 0 0 0 0.03 
5.0 
5.0 
36 1 37 0 0 0 0 0 0.03 
5.0 
5.0 
37 1 38 0 0 0 0 0 0.03 
5.0 
5.0 
38 1 39 0 0 0 0 0 0.03 
5.0 
5.0 
39 1 40 0 0 0 0 0 0.03 
5.0 
5.0 
40 1 0 0 0 0 0 0 0.03 
5.0 
5.0 
40 0 0 0
1 1 2 0 48.59168 0 0 0 0.03 
5.0 
5.0 
2 1 3 0 0 0 0 0 0.03 
5.0 
5.0 
3 1 4 0 0 0 0 0 0.03 
5.0 
5.0 
4 1 5 0 0 0 0 0 0.03 
5.0 
5.0 
5 1 6 0 0 0 0 0 0.03 
5.0 
5.0 
6 1 7 0 0 0 0 0 0.03 
5.0 
5.0 
7 1 8 0 0 0 0 0 0.03 
5.0 
5.0 
8 1 9 0 0 0 0 0 0.03 
5.0 
5.0 
9 1 10 0 0 0 0 0 0.03 
5.0 
5.0 
10 1 11 0 0 0 0 0 0.03 
5.0 
5.0 
11 1 12 0 0 0 0 0 0.03 
5.0 
5.0 
12 1 13 0 0 0 0 0 0.03 
5.0 
5.0 
13 1 14 0 0 0 0 0 0.03 
5.0 
5.0 
14 1 15 0 0 0 0 0 0.03 
5.0 
5.0 
15 1 16 0 0 0 0 0 0.03 
5.0 
5.0 
16 1 17 0 0 0 0 0 0.03 
5.0 
5.0 
17 1 18 0 0 0 0 0 0.03 
5.0 
5.0 
18 1 19 0 0 0 0 0 0.03 
5.0 
5.0 
19 1 20 0 0 0 0 0 0.03 
5.0 
5.0 
20 1 21 0 0 0 0 0 0.03 
5.0 
5.0 
21 1 22 0 0 0 0 0 0.03 
5.0 
5.0 
22 1 23 0 0 0 0 0 0.03 
5.0 
5.0 
23 1 24 0 0 0 0 0 0.03 
5.0 
5.0 
24 1 25 0 0 0 0 0 0.03 
5.0 
5.0 
25 1 26 0 0 0 0 0 0.03 
5.0 
5.0 
26 1 27 0 0 0 0 0 0.03 
5.0 
5.0 
27 1 28 0 0 0 0 0 0.03 
5.0 
5.0 
28 1 29 0 0 0 0 0 0.03 
5.0 
5.0 
29 1 30 0 0 0 0 0 0.03 
5.0 
5.0 
30 1 31 0 0 0 0 0 0.03 
5.0 
5.0 
31 1 32 0 0 0 0 0 0.03 
5.0 
5.0 
32 1 33 0 0 0 0 0 0.03 
5.0 
5.0 
33 1 34 0 0 0 0 0 0.03 
5.0 
5.0 
34 1 35 0 0 0 0 0 0.03 
5.0 
5.0 
35 1 36 0 0 0 0 0 0.03 
5.0 
5.0 
36 1 37 0 0 0 0 0 0.03 
5.0 
5.0 
37 1 38 0 0 0 0 0 0.03 
5.0 
5.0 
38 1 39 0 0 0 0 0 0.03 
5.0 
5.0 
39 1 40 0 0 0 0 0 0.03 
5.0 
5.0 
40 1 0 0 0 0 0 0 0.03 
5.0 
5.0 
40 0 0 0
1 1 2 0 76.74306 0 0 0 0.03 
5.0 
5.0 
2 1 3 0 0 0 0 0 0.03 
5.0 
5.0 
3 1 4 0 0 0 0 0 0.03 
5.0 
5.0 
4 1 5 0 0 0 0 0 0.03 
5.0 
5.0 
5 1 6 0 0 0 0 0 0.03 
5.0 
5.0 
6 1 7 0 0 0 0 0 0.03 
5.0 
5.0 
7 1 8 0 0 0 0 0 0.03 
5.0 
5.0 
8 1 9 0 0 0 0 0 0.03 
5.0 
5.0 
9 1 10 0 0 0 0 0 0.03 
5.0 
5.0 
10 1 11 0 0 0 0 0 0.03 
5.0 
5.0 
11 1 12 0 0 0 0 0 0.03 
5.0 
5.0 
12 1 13 0 0 0 0 0 0.03 
5.0 
5.0 
13 1 14 0 0 0 0 0 0.03 
5.0 
5.0 
14 1 15 0 0 0 0 0 0.03 
5.0 
5.0 
15 1 16 0 0 0 0 0 0.03 
5.0 
5.0 
16 1 17 0 0 0 0 0 0.03 
5.0 
5.0 
17 1 18 0 0 0 0 0 0.03 
5.0 
5.0 
18 1 19 0 0 0 0 0 0.03 
5.0 
5.0 
19 1 20 0 0 0 0 0 0.03 
5.0 
5.0 
20 1 21 0 0 0 0 0 0.03 
5.0 
5.0 
21 1 22 0 0 0 0 0 0.03 
5.0 
5.0 
22 1 23 0 0 0 0 0 0.03 
5.0 
5.0 
23 1 24 0 0 0 0 0 0.03 
5.0 
5.0 
24 1 25 0 0 0 0 0 0.03 
5.0 
5.0 
25 1 26 0 0 0 0 0 0.03 
5.0 
5.0 
26 1 27 0 0 0 0 0 0.03 
5.0 
5.0 
27 1 28 0 0 0 0 0 0.03 
5.0 
5.0 
28 1 29 0 0 0 0 0 0.03 
5.0 
5.0 
29 1 30 0 0 0 0 0 0.03 
5.0 
5.0 
30 1 31 0 0 0 0 0 0.03 
5.0 
5.0 
31 1 32 0 0 0 0 0 0.03 
5.0 
5.0 
32 1 33 0 0 0 0 0 0.03 
5.0 
5.0 
33 1 34 0 0 0 0 0 0.03 
5.0 
5.0 
34 1 35 0 0 0 0 0 0.03 
5.0 
5.0 
35 1 36 0 0 0 0 0 0.03 
5.0 
5.0 
36 1 37 0 0 0 0 0 0.03 
5.0 
5.0 
37 1 38 0 0 0 0 0 0.03 
5.0 
5.0 
38 1 39 0 0 0 0 0 0.03 
5.0 
5.0 
39 1 40 0 0 0 0 0 0.03 
5.0 
5.0 
40 1 0 0 0 0 0 0 0.03 
5.0 
5.0 
40 0 0 0
1 1 2 0 111.66596 0 0 0 0.03 
5.0 
5.0 
2 1 3 0 0 0 0 0 0.03 
5.0 
5.0 
3 1 4 0 0 0 0 0 0.03 
5.0 
5.0 
4 1 5 0 0 0 0 0 0.03 
5.0 
5.0 
5 1 6 0 0 0 0 0 0.03 
5.0 
5.0 
6 1 7 0 0 0 0 0 0.03 
5.0 
5.0 
7 1 8 0 0 0 0 0 0.03 
5.0 
5.0 
8 1 9 0 0 0 0 0 0.03 
5.0 
5.0 
9 1 10 0 0 0 0 0 0.03 
5.0 
5.0 
10 1 11 0 0 0 0 0 0.03 
5.0 
5.0 
11 1 12 0 0 0 0 0 0.03 
5.0 
5.0 
12 1 13 0 0 0 0 0 0.03 
5.0 
5.0 
13 1 14 0 0 0 0 0 0.03 
5.0 
5.0 
14 1 15 0 0 0 0 0 0.03 
5.0 
5.0 
15 1 16 0 0 0 0 0 0.03 
5.0 
5.0 
16 1 17 0 0 0 0 0 0.03 
5.0 
5.0 
17 1 18 0 0 0 0 0 0.03 
5.0 
5.0 
18 1 19 0 0 0 0 0 0.03 
5.0 
5.0 
19 1 20 0 0 0 0 0 0.03 
5.0 
5.0 
20 1 21 0 0 0 0 0 0.03 
5.0 
5.0 
21 1 22 0 0 0 0 0 0.03 
5.0 
5.0 
22 1 23 0 0 0 0 0 0.03 
5.0 
5.0 
23 1 24 0 0 0 0 0 0.03 
5.0 
5.0 
24 1 25 0 0 0 0 0 0.03 
5.0 
5.0 
25 1 26 0 0 0 0 0 0.03 
5.0 
5.0 
26 1 27 0 0 0 0 0 0.03 
5.0 
5.0 
27 1 28 0 0 0 0 0 0.03 
5.0 
5.0 
28 1 29 0 0 0 0 0 0.03 
5.0 
5.0 
29 1 30 0 0 0 0 0 0.03 
5.0 
5.0 
30 1 31 0 0 0 0 0 0.03 
5.0 
5.0 
31 1 32 0 0 0 0 0 0.03 
5.0 
5.0 
32 1 33 0 0 0 0 0 0.03 
5.0 
5.0 
33 1 34 0 0 0 0 0 0.03 
5.0 
5.0 
34 1 35 0 0 0 0 0 0.03 
5.0 
5.0 
35 1 36 0 0 0 0 0 0.03 
5.0 
5.0 
36 1 37 0 0 0 0 0 0.03 
5.0 
5.0 
37 1 38 0 0 0 0 0 0.03 
5.0 
5.0 
38 1 39 0 0 0 0 0 0.03 
5.0 
5.0 
39 1 40 0 0 0 0 0 0.03 
5.0 
5.0 
40 1 0 0 0 0 0 0 0.03 
5.0 
5.0 
40 0 0 0
1 1 2 0 143.19218 0 0 0 0.03 
5.0 
5.0 
2 1 3 0 0 0 0 0 0.03 
5.0 
5.0 
3 1 4 0 0 0 0 0 0.03 
5.0 
5.0 
4 1 5 0 0 0 0 0 0.03 
5.0 
5.0 
5 1 6 0 0 0 0 0 0.03 
5.0 
5.0 
6 1 7 0 0 0 0 0 0.03 
5.0 
5.0 
7 1 8 0 0 0 0 0 0.03 
5.0 
5.0 
8 1 9 0 0 0 0 0 0.03 
5.0 
5.0 
9 1 10 0 0 0 0 0 0.03 
5.0 
5.0 
10 1 11 0 0 0 0 0 0.03 
5.0 
5.0 
11 1 12 0 0 0 0 0 0.03 
5.0 
5.0 
12 1 13 0 0 0 0 0 0.03 
5.0 
5.0 
13 1 14 0 0 0 0 0 0.03 
5.0 
5.0 
14 1 15 0 0 0 0 0 0.03 
5.0 
5.0 
15 1 16 0 0 0 0 0 0.03 
5.0 
5.0 
16 1 17 0 0 0 0 0 0.03 
5.0 
5.0 
17 1 18 0 0 0 0 0 0.03 
5.0 
5.0 
18 1 19 0 0 0 0 0 0.03 
5.0 
5.0 
19 1 20 0 0 0 0 0 0.03 
5.0 
5.0 
20 1 21 0 0 0 0 0 0.03 
5.0 
5.0 
21 1 22 0 0 0 0 0 0.03 
5.0 
5.0 
22 1 23 0 0 0 0 0 0.03 
5.0 
5.0 
23 1 24 0 0 0 0 0 0.03 
5.0 
5.0 
24 1 25 0 0 0 0 0 0.03 
5.0 
5.0 
25 1 26 0 0 0 0 0 0.03 
5.0 
5.0 
26 1 27 0 0 0 0 0 0.03 
5.0 
5.0 
27 1 28 0 0 0 0 0 0.03 
5.0 
5.0 
28 1 29 0 0 0 0 0 0.03 
5.0 
5.0 
29 1 30 0 0 0 0 0 0.03 
5.0 
5.0 
30 1 31 0 0 0 0 0 0.03 
5.0 
5.0 
31 1 32 0 0 0 0 0 0.03 
5.0 
5.0 
32 1 33 0 0 0 0 0 0.03 
5.0 
5.0 
33 1 34 0 0 0 0 0 0.03 
5.0 
5.0 
34 1 35 0 0 0 0 0 0.03 
5.0 
5.0 
35 1 36 0 0 0 0 0 0.03 
5.0 
5.0 
36 1 37 0 0 0 0 0 0.03 
5.0 
5.0 
37 1 38 0 0 0 0 0 0.03 
5.0 
5.0 
38 1 39 0 0 0 0 0 0.03 
5.0 
5.0 
39 1 40 0 0 0 0 0 0.03 
5.0 
5.0 
40 1 0 0 0 0 0 0 0.03 
5.0 
5.0 
40 0 0 0
1 1 2 0 162.14252 0 0 0 0.03 
5.0 
5.0 
2 1 3 0 0 0 0 0 0.03 
5.0 
5.0 
3 1 4 0 0 0 0 0 0.03 
5.0 
5.0 
4 1 5 0 0 0 0 0 0.03 
5.0 
5.0 
5 1 6 0 0 0 0 0 0.03 
5.0 
5.0 
6 1 7 0 0 0 0 0 0.03 
5.0 
5.0 
7 1 8 0 0 0 0 0 0.03 
5.0 
5.0 
8 1 9 0 0 0 0 0 0.03 
5.0 
5.0 
9 1 10 0 0 0 0 0 0.03 
5.0 
5.0 
10 1 11 0 0 0 0 0 0.03 
5.0 
5.0 
11 1 12 0 0 0 0 0 0.03 
5.0 
5.0 
12 1 13 0 0 0 0 0 0.03 
5.0 
5.0 
13 1 14 0 0 0 0 0 0.03 
5.0 
5.0 
14 1 15 0 0 0 0 0 0.03 
5.0 
5.0 
15 1 16 0 0 0 0 0 0.03 
5.0 
5.0 
16 1 17 0 0 0 0 0 0.03 
5.0 
5.0 
17 1 18 0 0 0 0 0 0.03 
5.0 
5.0 
18 1 19 0 0 0 0 0 0.03 
5.0 
5.0 
19 1 20 0 0 0 0 0 0.03 
5.0 
5.0 
20 1 21 0 0 0 0 0 0.03 
5.0 
5.0 
21 1 22 0 0 0 0 0 0.03 
5.0 
5.0 
22 1 23 0 0 0 0 0 0.03 
5.0 
5.0 
23 1 24 0 0 0 0 0 0.03 
5.0 
5.0 
24 1 25 0 0 0 0 0 0.03 
5.0 
5.0 
25 1 26 0 0 0 0 0 0.03 
5.0 
5.0 
26 1 27 0 0 0 0 0 0.03 
5.0 
5.0 
27 1 28 0 0 0 0 0 0.03 
5.0 
5.0 
28 1 29 0 0 0 0 0 0.03 
5.0 
5.0 
29 1 30 0 0 0 0 0 0.03 
5.0 
5.0 
30 1 31 0 0 0 0 0 0.03 
5.0 
5.0 
31 1 32 0 0 0 0 0 0.03 
5.0 
5.0 
32 1 33 0 0 0 0 0 0.03 
5.0 
5.0 
33 1 34 0 0 0 0 0 0.03 
5.0 
5.0 
34 1 35 0 0 0 0 0 0.03 
5.0 
5.0 
35 1 36 0 0 0 0 0 0.03 
5.0 
5.0 
36 1 37 0 0 0 0 0 0.03 
5.0 
5.0 
37 1 38 0 0 0 0 0 0.03 
5.0 
5.0 
38 1 39 0 0 0 0 0 0.03 
5.0 
5.0 
39 1 40 0 0 0 0 0 0.03 
5.0 
5.0 
40 1 0 0 0 0 0 0 0.03 
5.0 
5.0 
40 0 0 0
1 1 2 0 162.99937 0 0 0 0.03 
5.0 
5.0 
2 1 3 0 0 0 0 0 0.03 
5.0 
5.0 
3 1 4 0 0 0 0 0 0.03 
5.0 
5.0 
4 1 5 0 0 0 0 0 0.03 
5.0 
5.0 
5 1 6 0 0 0 0 0 0.03 
5.0 
5.0 
6 1 7 0 0 0 0 0 0.03 
5.0 
5.0 
7 1 8 0 0 0 0 0 0.03 
5.0 
5.0 
8 1 9 0 0 0 0 0 0.03 
5.0 
5.0 
9 1 10 0 0 0 0 0 0.03 
5.0 
5.0 
10 1 11 0 0 0 0 0 0.03 
5.0 
5.0 
11 1 12 0 0 0 0 0 0.03 
5.0 
5.0 
12 1 13 0 0 0 0 0 0.03 
5.0 
5.0 
13 1 14 0 0 0 0 0 0.03 
5.0 
5.0 
14 1 15 0 0 0 0 0 0.03 
5.0 
5.0 
15 1 16 0 0 0 0 0 0.03 
5.0 
5.0 
16 1 17 0 0 0 0 0 0.03 
5.0 
5.0 
17 1 18 0 0 0 0 0 0.03 
5.0 
5.0 
18 1 19 0 0 0 0 0 0.03 
5.0 
5.0 
19 1 20 0 0 0 0 0 0.03 
5.0 
5.0 
20 1 21 0 0 0 0 0 0.03 
5.0 
5.0 
21 1 22 0 0 0 0 0 0.03 
5.0 
5.0 
22 1 23 0 0 0 0 0 0.03 
5.0 
5.0 
23 1 24 0 0 0 0 0 0.03 
5.0 
5.0 
24 1 25 0 0 0 0 0 0.03 
5.0 
5.0 
25 1 26 0 0 0 0 0 0.03 
5.0 
5.0 
26 1 27 0 0 0 0 0 0.03 
5.0 
5.0 
27 1 28 0 0 0 0 0 0.03 
5.0 
5.0 
28 1 29 0 0 0 0 0 0.03 
5.0 
5.0 
29 1 30 0 0 0 0 0 0.03 
5.0 
5.0 
30 1 31 0 0 0 0 0 0.03 
5.0 
5.0 
31 1 32 0 0 0 0 0 0.03 
5.0 
5.0 
32 1 33 0 0 0 0 0 0.03 
5.0 
5.0 
33 1 34 0 0 0 0 0 0.03 
5.0 
5.0 
34 1 35 0 0 0 0 0 0.03 
5.0 
5.0 
35 1 36 0 0 0 0 0 0.03 
5.0 
5.0 
36 1 37 0 0 0 0 0 0.03 
5.0 
5.0 
37 1 38 0 0 0 0 0 0.03 
5.0 
5.0 
38 1 39 0 0 0 0 0 0.03 
5.0 
5.0 
39 1 40 0 0 0 0 0 0.03 
5.0 
5.0 
40 1 0 0 0 0 0 0 0.03 
5.0 
5.0 
40 0 0 0
1 1 2 0 145.51323 0 0 0 0.03 
5.0 
5.0 
2 1 3 0 0 0 0 0 0.03 
5.0 
5.0 
3 1 4 0 0 0 0 0 0.03 
5.0 
5.0 
4 1 5 0 0 0 0 0 0.03 
5.0 
5.0 
5 1 6 0 0 0 0 0 0.03 
5.0 
5.0 
6 1 7 0 0 0 0 0 0.03 
5.0 
5.0 
7 1 8 0 0 0 0 0 0.03 
5.0 
5.0 
8 1 9 0 0 0 0 0 0.03 
5.0 
5.0 
9 1 10 0 0 0 0 0 0.03 
5.0 
5.0 
10 1 11 0 0 0 0 0 0.03 
5.0 
5.0 
11 1 12 0 0 0 0 0 0.03 
5.0 
5.0 
12 1 13 0 0 0 0 0 0.03 
5.0 
5.0 
13 1 14 0 0 0 0 0 0.03 
5.0 
5.0 
14 1 15 0 0 0 0 0 0.03 
5.0 
5.0 
15 1 16 0 0 0 0 0 0.03 
5.0 
5.0 
16 1 17 0 0 0 0 0 0.03 
5.0 
5.0 
17 1 18 0 0 0 0 0 0.03 
5.0 
5.0 
18 1 19 0 0 0 0 0 0.03 
5.0 
5.0 
19 1 20 0 0 0 0 0 0.03 
5.0 
5.0 
20 1 21 0 0 0 0 0 0.03 
5.0 
5.0 
21 1 22 0 0 0 0 0 0.03 
5.0 
5.0 
22 1 23 0 0 0 0 0 0.03 
5.0 
5.0 
23 1 24 0 0 0 0 0 0.03 
5.0 
5.0 
24 1 25 0 0 0 0 0 0.03 
5.0 
5.0 
25 1 26 0 0 0 0 0 0.03 
5.0 
5.0 
26 1 27 0 0 0 0 0 0.03 
5.0 
5.0 
27 1 28 0 0 0 0 0 0.03 
5.0 
5.0 
28 1 29 0 0 0 0 0 0.03 
5.0 
5.0 
29 1 30 0 0 0 0 0 0.03 
5.0 
5.0 
30 1 31 0 0 0 0 0 0.03 
5.0 
5.0 
31 1 32 0 0 0 0 0 0.03 
5.0 
5.0 
32 1 33 0 0 0 0 0 0.03 
5.0 
5.0 
33 1 34 0 0 0 0 0 0.03 
5.0 
5.0 
34 1 35 0 0 0 0 0 0.03 
5.0 
5.0 
35 1 36 0 0 0 0 0 0.03 
5.0 
5.0 
36 1 37 0 0 0 0 0 0.03 
5.0 
5.0 
37 1 38 0 0 0 0 0 0.03 
5.0 
5.0 
38 1 39 0 0 0 0 0 0.03 
5.0 
5.0 
39 1 40 0 0 0 0 0 0.03 
5.0 
5.0 
40 1 0 0 0 0 0 0 0.03 
5.0 
5.0 
40 0 0 0
1 1 2 0 114.77543 0 0 0 0.03 
5.0 
5.0 
2 1 3 0 0 0 0 0 0.03 
5.0 
5.0 
3 1 4 0 0 0 0 0 0.03 
5.0 
5.0 
4 1 5 0 0 0 0 0 0.03 
5.0 
5.0 
5 1 6 0 0 0 0 0 0.03 
5.0 
5.0 
6 1 7 0 0 0 0 0 0.03 
5.0 
5.0 
7 1 8 0 0 0 0 0 0.03 
5.0 
5.0 
8 1 9 0 0 0 0 0 0.03 
5.0 
5.0 
9 1 10 0 0 0 0 0 0.03 
5.0 
5.0 
10 1 11 0 0 0 0 0 0.03 
5.0 
5.0 
11 1 12 0 0 0 0 0 0.03 
5.0 
5.0 
12 1 13 0 0 0 0 0 0.03 
5.0 
5.0 
13 1 14 0 0 0 0 0 0.03 
5.0 
5.0 
14 1 15 0 0 0 0 0 0.03 
5.0 
5.0 
15 1 16 0 0 0 0 0 0.03 
5.0 
5.0 
16 1 17 0 0 0 0 0 0.03 
5.0 
5.0 
17 1 18 0 0 0 0 0 0.03 
5.0 
5.0 
18 1 19 0 0 0 0 0 0.03 
5.0 
5.0 
19 1 20 0 0 0 0 0 0.03 
5.0 
5.0 
20 1 21 0 0 0 0 0 0.03 
5.0 
5.0 
21 1 22 0 0 0 0 0 0.03 
5.0 
5.0 
22 1 23 0 0 0 0 0 0.03 
5.0 
5.0 
23 1 24 0 0 0 0 0 0.03 
5.0 
5.0 
24 1 25 0 0 0 0 0 0.03 
5.0 
5.0 
25 1 26 0 0 0 0 0 0.03 
5.0 
5.0 
26 1 27 0 0 0 0 0 0.03 
5.0 
5.0 
27 1 28 0 0 0 0 0 0.03 
5.0 
5.0 
28 1 29 0 0 0 0 0 0.03 
5.0 
5.0 
29 1 30 0 0 0 0 0 0.03 
5.0 
5.0 
30 1 31 0 0 0 0 0 0.03 
5.0 
5.0 
31 1 32 0 0 0 0 0 0.03 
5.0 
5.0 
32 1 33 0 0 0 0 0 0.03 
5.0 
5.0 
33 1 34 0 0 0 0 0 0.03 
5.0 
5.0 
34 1 35 0 0 0 0 0 0.03 
5.0 
5.0 
35 1 36 0 0 0 0 0 0.03 
5.0 
5.0 
36 1 37 0 0 0 0 0 0.03 
5.0 
5.0 
37 1 38 0 0 0 0 0 0.03 
5.0 
5.0 
38 1 39 0 0 0 0 0 0.03 
5.0 
5.0 
39 1 40 0 0 0 0 0 0.03 
5.0 
5.0 
40 1 0 0 0 0 0 0 0.03 
5.0 
5.0 
40 0 0 0
1 1 2 0 79.73558 0 0 0 0.03 
5.0 
5.0 
2 1 3 0 0 0 0 0 0.03 
5.0 
5.0 
3 1 4 0 0 0 0 0 0.03 
5.0 
5.0 
4 1 5 0 0 0 0 0 0.03 
5.0 
5.0 
5 1 6 0 0 0 0 0 0.03 
5.0 
5.0 
6 1 7 0 0 0 0 0 0.03 
5.0 
5.0 
7 1 8 0 0 0 0 0 0.03 
5.0 
5.0 
8 1 9 0 0 0 0 0 0.03 
5.0 
5.0 
9 1 10 0 0 0 0 0 0.03 
5.0 
5.0 
10 1 11 0 0 0 0 0 0.03 
5.0 
5.0 
11 1 12 0 0 0 0 0 0.03 
5.0 
5.0 
12 1 13 0 0 0 0 0 0.03 
5.0 
5.0 
13 1 14 0 0 0 0 0 0.03 
5.0 
5.0 
14 1 15 0 0 0 0 0 0.03 
5.0 
5.0 
15 1 16 0 0 0 0 0 0.03 
5.0 
5.0 
16 1 17 0 0 0 0 0 0.03 
5.0 
5.0 
17 1 18 0 0 0 0 0 0.03 
5.0 
5.0 
18 1 19 0 0 0 0 0 0.03 
5.0 
5.0 
19 1 20 0 0 0 0 0 0.03 
5.0 
5.0 
20 1 21 0 0 0 0 0 0.03 
5.0 
5.0 
21 1 22 0 0 0 0 0 0.03 
5.0 
5.0 
22 1 23 0 0 0 0 0 0.03 
5.0 
5.0 
23 1 24 0 0 0 0 0 0.03 
5.0 
5.0 
24 1 25 0 0 0 0 0 0.03 
5.0 
5.0 
25 1 26 0 0 0 0 0 0.03 
5.0 
5.0 
26 1 27 0 0 0 0 0 0.03 
5.0 
5.0 
27 1 28 0 0 0 0 0 0.03 
5.0 
5.0 
28 1 29 0 0 0 0 0 0.03 
5.0 
5.0 
29 1 30 0 0 0 0 0 0.03 
5.0 
5.0 
30 1 31 0 0 0 0 0 0.03 
5.0 
5.0 
31 1 32 0 0 0 0 0 0.03 
5.0 
5.0 
32 1 33 0 0 0 0 0 0.03 
5.0 
5.0 
33 1 34 0 0 0 0 0 0.03 
5.0 
5.0 
34 1 35 0 0 0 0 0 0.03 
5.0 
5.0 
35 1 36 0 0 0 0 0 0.03 
5.0 
5.0 
36 1 37 0 0 0 0 0 0.03 
5.0 
5.0 
37 1 38 0 0 0 0 0 0.03 
5.0 
5.0 
38 1 39 0 0 0 0 0 0.03 
5.0 
5.0 
39 1 40 0 0 0 0 0 0.03 
5.0 
5.0 
40 1 0 0 0 0 0 0 0.03 
5.0 
5.0 
40 0 0 0
1 1 2 0 50.59595 0 0 0 0.03 
5.0 
5.0 
2 1 3 0 0 0 0 0 0.03 
5.0 
5.0 
3 1 4 0 0 0 0 0 0.03 
5.0 
5.0 
4 1 5 0 0 0 0 0 0.03 
5.0 
5.0 
5 1 6 0 0 0 0 0 0.03 
5.0 
5.0 
6 1 7 0 0 0 0 0 0.03 
5.0 
5.0 
7 1 8 0 0 0 0 0 0.03 
5.0 
5.0 
8 1 9 0 0 0 0 0 0.03 
5.0 
5.0 
9 1 10 0 0 0 0 0 0.03 
5.0 
5.0 
10 1 11 0 0 0 0 0 0.03 
5.0 
5.0 
11 1 12 0 0 0 0 0 0.03 
5.0 
5.0 
12 1 13 0 0 0 0 0 0.03 
5.0 
5.0 
13 1 14 0 0 0 0 0 0.03 
5.0 
5.0 
14 1 15 0 0 0 0 0 0.03 
5.0 
5.0 
15 1 16 0 0 0 0 0 0.03 
5.0 
5.0 
16 1 17 0 0 0 0 0 0.03 
5.0 
5.0 
17 1 18 0 0 0 0 0 0.03 
5.0 
5.0 
18 1 19 0 0 0 0 0 0.03 
5.0 
5.0 
19 1 20 0 0 0 0 0 0.03 
5.0 
5.0 
20 1 21 0 0 0 0 0 0.03 
5.0 
5.0 
21 1 22 0 0 0 0 0 0.03 
5.0 
5.0 
22 1 23 0 0 0 0 0 0.03 
5.0 
5.0 
23 1 24 0 0 0 0 0 0.03 
5.0 
5.0 
24 1 25 0 0 0 0 0 0.03 
5.0 
5.0 
25 1 26 0 0 0 0 0 0.03 
5.0 
5.0 
26 1 27 0 0 0 0 0 0.03 
5.0 
5.0 
27 1 28 0 0 0 0 0 0.03 
5.0 
5.0 
28 1 29 0 0 0 0 0 0.03 
5.0 
5.0 
29 1 30 0 0 0 0 0 0.03 
5.0 
5.0 
30 1 31 0 0 0 0 0 0.03 
5.0 
5.0 
31 1 32 0 0 0 0 0 0.03 
5.0 
5.0 
32 1 33 0 0 0 0 0 0.03 
5.0 
5.0 
33 1 34 0 0 0 0 0 0.03 
5.0 
5.0 
34 1 35 0 0 0 0 0 0.03 
5.0 
5.0 
35 1 36 0 0 0 0 0 0.03 
5.0 
5.0 
36 1 37 0 0 0 0 0 0.03 
5.0 
5.0 
37 1 38 0 0 0 0 0 0.03 
5.0 
5.0 
38 1 39 0 0 0 0 0 0.03 
5.0 
5.0 
39 1 40 0 0 0 0 0 0.03 
5.0 
5.0 
40 1 0 0 0 0 0 0 0.03 
5.0 
5.0 
40 0 0 0
1 1 2 0 35.84086 0 0 0 0.03 
5.0 
5.0 
2 1 3 0 0 0 0 0 0.03 
5.0 
5.0 
3 1 4 0 0 0 0 0 0.03 
5.0 
5.0 
4 1 5 0 0 0 0 0 0.03 
5.0 
5.0 
5 1 6 0 0 0 0 0 0.03 
5.0 
5.0 
6 1 7 0 0 0 0 0 0.03 
5.0 
5.0 
7 1 8 0 0 0 0 0 0.03 
5.0 
5.0 
8 1 9 0 0 0 0 0 0.03 
5.0 
5.0 
9 1 10 0 0 0 0 0 0.03 
5.0 
5.0 
10 1 11 0 0 0 0 0 0.03 
5.0 
5.0 
11 1 12 0 0 0 0 0 0.03 
5.0 
5.0 
12 1 13 0 0 0 0 0 0.03 
5.0 
5.0 
13 1 14 0 0 0 0 0 0.03 
5.0 
5.0 
14 1 15 0 0 0 0 0 0.03 
5.0 
5.0 
15 1 16 0 0 0 0 0 0.03 
5.0 
5.0 
16 1 17 0 0 0 0 0 0.03 
5.0 
5.0 
17 1 18 0 0 0 0 0 0.03 
5.0 
5.0 
18 1 19 0 0 0 0 0 0.03 
5.0 
5.0 
19 1 20 0 0 0 0 0 0.03 
5.0 
5.0 
20 1 21 0 0 0 0 0 0.03 
5.0 
5.0 
21 1 22 0 0 0 0 0 0.03 
5.0 
5.0 
22 1 23 0 0 0 0 0 0.03 
5.0 
5.0 
23 1 24 0 0 0 0 0 0.03 
5.0 
5.0 
24 1 25 0 0 0 0 0 0.03 
5.0 
5.0 
25 1 26 0 0 0 0 0 0.03 
5.0 
5.0 
26 1 27 0 0 0 0 0 0.03 
5.0 
5.0 
27 1 28 0 0 0 0 0 0.03 
5.0 
5.0 
28 1 29 0 0 0 0 0 0.03 
5.0 
5.0 
29 1 30 0 0 0 0 0 0.03 
5.0 
5.0 
30 1 31 0 0 0 0 0 0.03 
5.0 
5.0 
31 1 32 0 0 0 0 0 0.03 
5.0 
5.0 
32 1 33 0 0 0 0 0 0.03 
5.0 
5.0 
33 1 34 0 0 0 0 0 0.03 
5.0 
5.0 
34 1 35 0 0 0 0 0 0.03 
5.0 
5.0 
35 1 36 0 0 0 0 0 0.03 
5.0 
5.0 
36 1 37 0 0 0 0 0 0.03 
5.0 
5.0 
37 1 38 0 0 0 0 0 0.03 
5.0 
5.0 
38 1 39 0 0 0 0 0 0.03 
5.0 
5.0 
39 1 40 0 0 0 0 0 0.03 
5.0 
5.0 
40 1 0 0 0 0 0 0 0.03 
5.0 
5.0 
40 0 0 0
1 1 2 0 39.76642 0 0 0 0.03 
5.0 
5.0 
2 1 3 0 0 0 0 0 0.03 
5.0 
5.0 
3 1 4 0 0 0 0 0 0.03 
5.0 
5.0 
4 1 5 0 0 0 0 0 0.03 
5.0 
5.0 
5 1 6 0 0 0 0 0 0.03 
5.0 
5.0 
6 1 7 0 0 0 0 0 0.03 
5.0 
5.0 
7 1 8 0 0 0 0 0 0.03 
5.0 
5.0 
8 1 9 0 0 0 0 0 0.03 
5.0 
5.0 
9 1 10 0 0 0 0 0 0.03 
5.0 
5.0 
10 1 11 0 0 0 0 0 0.03 
5.0 
5.0 
11 1 12 0 0 0 0 0 0.03 
5.0 
5.0 
12 1 13 0 0 0 0 0 0.03 
5.0 
5.0 
13 1 14 0 0 0 0 0 0.03 
5.0 
5.0 
14 1 15 0 0 0 0 0 0.03 
5.0 
5.0 
15 1 16 0 0 0 0 0 0.03 
5.0 
5.0 
16 1 17 0 0 0 0 0 0.03 
5.0 
5.0 
17 1 18 0 0 0 0 0 0.03 
5.0 
5.0 
18 1 19 0 0 0 0 0 0.03 
5.0 
5.0 
19 1 20 0 0 0 0 0 0.03 
5.0 
5.0 
20 1 21 0 0 0 0 0 0.03 
5.0 
5.0 
21 1 22 0 0 0 0 0 0.03 
5.0 
5.0 
22 1 23 0 0 0 0 0 0.03 
5.0 
5.0 
23 1 24 0 0 0 0 0 0.03 
5.0 
5.0 
24 1 25 0 0 0 0 0 0.03 
5.0 
5.0 
25 1 26 0 0 0 0 0 0.03 
5.0 
5.0 
26 1 27 0 0 0 0 0 0.03 
5.0 
5.0 
27 1 28 0 0 0 0 0 0.03 
5.0 
5.0 
28 1 29 0 0 0 0 0 0.03 
5.0 
5.0 
29 1 30 0 0 0 0 0 0.03 
5.0 
5.0 
30 1 31 0 0 0 0 0 0.03 
5.0 
5.0 
31 1 32 0 0 0 0 0 0.03 