# IC6 input file, prepared by MF5to6 on 6/30/2020 at 16:37:44.

BEGIN Options
END Options

BEGIN GRIDDATA
  STRT LAYERED
    INTERNAL  FACTOR    1.000000      IPRN  1
   39.43086       39.36268       39.21904       39.00412       38.77077       38.50557       38.18176       37.90130       37.56582       37.22559    
   36.89874       36.57523       36.24156       35.87820       35.50056       35.06069       35.20473       35.27559       35.32089       35.34552    
   39.44527       39.36940       39.22670       39.00596       38.78024       38.51054       38.18633       37.88638       37.55757       37.20073    
   36.87487       36.55574       36.22322       35.86160       35.49544       35.05295       35.19559       35.26754       35.31320       35.33702    
   39.46900       39.39716       39.24449       39.01912       38.79418       38.51512       38.17535       37.87197       37.52209       37.17342    
   36.83224       36.51633       36.18360       35.83557       35.48130       35.04065       35.18043       35.25023       35.29593       35.31992    
   39.50838       39.43621       39.28373       39.05054       38.80814       38.52427       38.16513       37.83732       37.49215       37.09958    
   36.76297       36.45302       36.13057       35.79908       35.44677       35.02528       35.16197       35.22576       35.27038       35.29298    
   39.56419       39.48478       39.32754       39.10040       38.84030       38.51875       38.15439       37.82148       37.40578       37.01961    
   36.68917       36.38351       36.07055       35.74831       35.40582       35.00325       35.12611       35.19056       35.23312       35.25589    
   39.62414       39.55672       39.39479       39.15784       38.87703       38.53620       38.15074       37.73252       37.34135       36.93086    
   36.58042       36.29402       35.99444       35.68420       35.35688       34.96748       35.08276       35.14046       35.18670       35.21109    
   39.69868       39.62992       39.48996       39.23894       38.93209       38.52823       38.12214       37.62857       37.20697       36.78788    
   36.46219       36.18856       35.90310       35.60627       35.29230       34.92152       35.02530       35.08184       35.12828       35.15579    
   39.81558       39.74572       39.62339       39.39439       38.98695       38.53481       38.05378       37.46363       37.00099       36.61390    
   36.32274       36.06667       35.79800       35.50877       35.21215       34.86261       34.93946       35.00697       35.06246       35.09692    
   39.92730       39.87743       39.80485       39.73710      -999.9900      -999.9900      -999.9900       37.06635       36.67862       36.40659    
   36.17124       35.92987       35.67308       35.40256       35.12021       34.78336       34.80338       34.90837       34.99385       35.03756    
   40.03695       39.99795       39.96646       39.93070      -999.9900      -999.9900      -999.9900      -999.9900       36.34867       36.19534    
   36.00122       35.78632       35.54042       35.27299       35.01852       34.68908       34.52465       34.80782       34.93984       34.99337    
   40.10798       40.08604       40.06496       40.05283      -999.9900      -999.9900      -999.9900      -999.9900       36.11222       36.00601    
   35.84966       35.65059       35.39595       35.11066       34.92912       34.69059       34.72414       34.84214       34.93189       34.97701    
   40.13496       40.12573       40.11518       40.10788      -999.9900      -999.9900      -999.9900      -999.9900       35.94160       35.86066    
   35.72345       35.53623       35.25570       34.82143       34.84219       34.68804       34.79187       34.87511       34.94038       34.97561    
   40.12810       40.12109       40.11386       40.10799      -999.9900      -999.9900      -999.9900      -999.9900       35.82072       35.75404    
   35.63286       35.47183       35.25925       35.01674       34.88357       34.70144       34.82134       34.89558       34.95097       34.97992    
   40.08105       40.07545       40.06474       40.05877      -999.9900      -999.9900      -999.9900      -999.9900       35.73608       35.67591    
   35.57119       35.43655       35.26615       35.08163       34.91636       34.71117       34.83585       34.90744       34.95759       34.98344    
   39.98886       39.98597       39.97560       39.97042      -999.9900      -999.9900      -999.9900      -999.9900       35.67188       35.61864    
   35.52501       35.40896       35.26160       35.09774       34.92727       34.71305       34.84069       34.91080       34.95855       34.98366    
   39.86516       39.85850       39.84798       39.84566      -999.9900      -999.9900      -999.9900      -999.9900       35.62433       35.57257    
   35.49020       35.38250       35.24697       35.09209       34.92326       34.70600       34.83517       34.90635       34.95460       34.97942    
   39.69059       39.67510       39.67641       39.68198      -999.9900      -999.9900      -999.9900      -999.9900       35.58910       35.54234    
   35.45867       35.35480       35.22408       35.07254       34.90602       34.69286       34.82087       34.89531       34.94488       34.97008    
   39.49816       39.48521       39.47292       39.47753      -999.9900      -999.9900      -999.9900      -999.9900       35.56813       35.51730    
   35.43212       35.32703       35.19378       35.04090       34.87529       34.67112       34.79972       34.87784       34.92996       34.95658    
   39.26764       39.25672       39.23830       39.24030      -999.9900      -999.9900      -999.9900      -999.9900       35.55636       35.50184    
   35.41128       35.29874       35.15771       34.99345       34.82012       34.63806       34.77211       34.85630       34.91201       34.94127    
   39.00395       38.98331       38.96159       38.95481      -999.9900      -999.9900      -999.9900      -999.9900       35.56224       35.49712    
   35.39711       35.27387       35.11645       34.92525       34.71485       34.58847       34.73840       34.83276       34.89430       34.92429    
   38.70562       38.68725       38.66241       38.62782      -999.9900      -999.9900      -999.9900      -999.9900       35.59266       35.50718    
   35.39182       35.25469       35.08076       34.84664       34.46909       34.52806       34.70878       34.81225       34.87763       34.90856    
   38.41190       38.36644       38.29570       38.24215      -999.9900      -999.9900       35.94993       35.84913       35.66516       35.53220    
   35.38822       35.24680       35.08070       34.88689       34.67830       34.55969       34.70945       34.80207       34.86372       34.89470    
   38.07671       38.02718       37.93462       37.77934       37.45599      -999.9900       36.01212       35.88057       35.69532       35.53671    
   35.37598       35.23364       35.07963       34.91676       34.74926       34.57918       34.71331       34.79605       34.85271       34.88203    
   37.79176       37.71923       37.60748       37.42229       37.09854       36.58887       36.16939       35.90630       35.70650       35.51131    
   35.34148       35.20164       35.06314       34.91808       34.76752       34.58291       34.71133       34.78797       34.84196       34.86937    
   37.50785       37.43306       37.30781       37.13596       36.82223       36.44960       36.14986       35.88847       35.66356       35.44406    
   35.26817       35.14204       35.02417       34.89840       34.75916       34.57494       34.70309       34.77633       34.82824       34.85439    
   37.24476       37.17543       37.05838       36.83915       36.58826       36.31349       36.05772       35.80412       35.57337       35.34607    
   35.12667       35.05025       34.96780       34.86358       34.73768       34.55984       34.68702       34.75967       34.81072       34.83648    
   36.99396       36.93194       36.80611       36.63051       36.39285       36.15572       35.91199       35.68911       35.46452       35.21476    
   34.84045       34.93669       34.90591       34.82251       34.70877       34.54000       34.66703       34.73928       34.78759       34.81364    
   36.77883       36.71267       36.58611       36.41787       36.19467       35.96746       35.73481       35.54423       35.36753       35.17960    
   34.98985       34.93266       34.86983       34.78408       34.67654       34.51686       34.64181       34.71364       34.76172       34.78697    
   36.58041       36.50275       36.38457       36.21283       35.98858       35.74907       35.49037       35.37351       35.25732       35.12410    
   34.99532       34.90841       34.82900       34.74078       34.63892       34.48981       34.61192       34.68301       34.73109       34.75678    
   36.39692       36.31918       36.19074       36.01460       35.80361       35.52220       35.09174       35.18933       35.13513       35.03989    
   34.93869       34.85012       34.76730       34.68364       34.59091       34.45804       34.57586       34.64741       34.69572       34.72124    
   36.25383       36.17073       36.03824       35.87386       35.65332       35.44243       35.20507       35.11510       35.03019       34.93671    
   34.84320       34.75858       34.68054       34.60703       34.53085       34.41928       34.53492       34.60643       34.65569       34.68122    
   36.17171       36.04162       35.89363       35.69274       35.51902       35.32935       35.14507       35.01262       34.91153       34.81058    
   34.71572       34.63113       34.56009       34.50454       34.45369       34.37313       34.48635       34.56047       34.61110       34.63910    
  -999.9900       35.90557       35.73874       35.53558       35.35802       35.17724       35.00842       34.87302       34.75641       34.65068    
   34.55211       34.46458       34.39311       34.36954       34.35667       34.31787       34.43093       34.50900       34.56323       34.59365    
  -999.9900      -999.9900       35.56422       35.35013       35.15570       34.97945       34.81611       34.68809       34.56931       34.45612    
   34.35356       34.25016       34.15403       34.19518       34.23955       34.25457       34.36872       34.45118       34.51220       34.55009    
  -999.9900      -999.9900      -999.9900       35.14823       34.90368       34.73221       34.59171       34.46457       34.33957       34.23458    
   34.13079       33.99688       33.75338       33.98949       34.11076       34.18523       34.29863       34.38638       34.45393       34.51693    
  -999.9900      -999.9900      -999.9900      -999.9900       34.57502       34.43534       34.29868       34.17156       34.06984       33.98382    
   33.90470       33.83091       33.77723       33.87614       33.99386       34.11288       34.22123       34.31079       34.37061      -999.9900    
  -999.9900      -999.9900      -999.9900      -999.9900       34.36035       34.09748       33.95101       33.83022       33.75571       33.69541    
   33.64540       33.61559       33.62500       33.71183       33.84816       34.02888       34.13554       34.23699       34.31829      -999.9900    
  -999.9900      -999.9900      -999.9900      -999.9900      -999.9900       33.57815       33.50858       33.44720       33.40490       33.36467    
   33.33929       33.33514       33.36615       33.45937       33.63675       33.92591       34.03805       34.15180      -999.9900      -999.9900    
  -999.9900      -999.9900      -999.9900      -999.9900      -999.9900       33.07281       33.05983       33.03059       33.00543       32.98577    
   32.97503       32.98119       33.01191       33.09389       33.29321       33.81567       33.92774      -999.9900      -999.9900      -999.9900    
  -999.9900      -999.9900      -999.9900      -999.9900      -999.9900       32.50698       32.50670       32.50694       32.50668       32.50663    
   32.50669       32.50675       32.50722       32.50841       32.51059      -999.9900      -999.9900      -999.9900      -999.9900      -999.9900    
    INTERNAL  FACTOR    1.000000      IPRN  1
   39.42999       39.36185       39.21820       39.00313       38.76981       38.50469       38.18058       37.90047       37.56482       37.22459    
   36.89777       36.57428       36.24067       35.87726       35.49973       35.07436       35.20395       35.27466       35.31994       35.34458    
   39.44443       39.36850       39.22586       39.00491       38.77932       38.50966       38.18526       37.88543       37.55670       37.19960    
   36.87387       36.55481       36.22233       35.86060       35.49466       35.06670       35.19479       35.26661       35.31226       35.33609    
   39.46813       39.39633       39.24361       39.01803       38.79330       38.51425       38.17421       37.87114       37.52103       37.17250    
   36.83121       36.51542       36.18265       35.83459       35.48058       35.05437       35.17961       35.24929       35.29499       35.31898    
   39.50751       39.43538       39.28292       39.04948       38.80717       38.52350       38.16400       37.83628       37.49142       37.09840    
   36.76187       36.45204       36.12958       35.79815       35.44596       35.03893       35.16121       35.22481       35.26944       35.29204    
   39.56338       39.48390       39.32664       39.09944       38.83944       38.51777       38.15324       37.82091       37.40459       37.01843    
   36.68816       36.38255       36.06960       35.74737       35.40499       35.01668       35.12527       35.18963       35.23217       35.25495    
   39.62326       39.55596       39.39389       39.15686       38.87612       38.53537       38.14988       37.73145       37.34058       36.92981    
   36.57922       36.29307       35.99348       35.68326       35.35608       34.98021       35.08194       35.13948       35.18577       35.21016    
   39.69772       39.62897       39.48915       39.23785       38.93134       38.52716       38.12148       37.62749       37.20614       36.78666    
   36.46106       36.18761       35.90214       35.60534       35.29148       34.93330       35.02449       35.08089       35.12733       35.15485    
   39.81477       39.74480       39.62253       39.39333       38.98621       38.53388       38.05286       37.46291       37.00008       36.61267    
   36.32163       36.06572       35.79708       35.50778       35.21131       34.87312       34.93859       35.00603       35.06149       35.09599    
   39.92642       39.87650       39.80386       39.73631      -999.9900      -999.9900      -999.9900       37.06529       36.67727       36.40545    
   36.17027       35.92890       35.67210       35.40163       35.11937       34.79202       34.80246       34.90738       34.99290       35.03661    
   40.03615       39.99698       39.96563       39.92977      -999.9900      -999.9900      -999.9900      -999.9900       36.34782       36.19436    
   36.00019       35.78535       35.53949       35.27201       35.01767       34.69546       34.52108       34.80679       34.93889       34.99240    
   40.10714       40.08515       40.06404       40.05196      -999.9900      -999.9900      -999.9900      -999.9900       36.11131       36.00499    
   35.84868       35.64965       35.39499       35.10970       34.92821       34.69741       34.72319       34.84118       34.93093       34.97606    
   40.13406       40.12483       40.11429       40.10698      -999.9900      -999.9900      -999.9900      -999.9900       35.94066       35.85968    
   35.72245       35.53533       35.25469       34.81757       34.84126       34.69516       34.79098       34.87415       34.93942       34.97466    
   40.12720       40.12018       40.11296       40.10709      -999.9900      -999.9900      -999.9900      -999.9900       35.81977       35.75308    
   35.63186       35.47086       35.25829       35.01576       34.88268       34.70922       34.82046       34.89462       34.95001       34.97897    
   40.08016       40.07457       40.06380       40.05783      -999.9900      -999.9900      -999.9900      -999.9900       35.73516       35.67495    
   35.57020       35.43560       35.26519       35.08068       34.91548       34.71952       34.83498       34.90649       34.95664       34.98249    
   39.98793       39.98507       39.97467       39.96947      -999.9900      -999.9900      -999.9900      -999.9900       35.67095       35.61769    
   35.52401       35.40802       35.26064       35.09679       34.92638       34.72176       34.83983       34.90984       34.95759       34.98271    
   39.86429       39.85765       39.84705       39.84473      -999.9900      -999.9900      -999.9900      -999.9900       35.62341       35.57158    
   35.48923       35.38155       35.24602       35.09114       34.92239       34.71482       34.83430       34.90539       34.95365       34.97848    
   39.68965       39.67404       39.67546       39.68109      -999.9900      -999.9900      -999.9900      -999.9900       35.58816       35.54140    
   35.45768       35.35385       35.22313       35.07158       34.90513       34.70167       34.81999       34.89436       34.94392       34.96913    
   39.49728       39.48429       39.47193       39.47661      -999.9900      -999.9900      -999.9900      -999.9900       35.56722       35.51634    
   35.43113       35.32608       35.19283       35.03995       34.87440       34.67966       34.79882       34.87688       34.92900       34.95562    
   39.26674       39.25584       39.23733       39.23942      -999.9900      -999.9900      -999.9900      -999.9900       35.55543       35.50088    
   35.41029       35.29778       35.15676       34.99250       34.81920       34.64603       34.77121       34.85534       34.91104       34.94032    
   39.00308       38.98235       38.96058       38.95388      -999.9900      -999.9900      -999.9900      -999.9900       35.56132       35.49614    
   35.39611       35.27292       35.11550       34.92428       34.71389       34.59541       34.73747       34.83179       34.89334       34.92333    
   38.70462       38.68631       38.66161       38.62685      -999.9900      -999.9900      -999.9900      -999.9900       35.59175       35.50619    
   35.39085       35.25373       35.07980       34.84561       34.46563       34.53370       34.70784       34.81128       34.87668       34.90760    
   38.41113       38.36554       38.29460       38.24118      -999.9900      -999.9900       35.94901       35.84825       35.66410       35.53126    
   35.38720       35.24585       35.07975       34.88590       34.67732       34.56652       34.70854       34.80110       34.86275       34.89374    
   38.07568       38.02618       37.93367       37.77850       37.45506      -999.9900       36.01119       35.87971       35.69426       35.53577    
   35.37495       35.23270       35.07867       34.91579       34.74833       34.58685       34.71240       34.79508       34.85175       34.88107    
   37.79094       37.71824       37.60658       37.42146       37.09782       36.58798       36.16841       35.90520       35.70561       35.51033    
   35.34047       35.20068       35.06219       34.91711       34.76661       34.59100       34.71042       34.78699       34.84100       34.86841    
   37.50697       37.43209       37.30677       37.13538       36.82124       36.44834       36.14892       35.88753       35.66265       35.44299    
   35.26719       35.14108       35.02321       34.89743       34.75825       34.58313       34.70220       34.77535       34.82728       34.85343    
   37.24390       37.17450       37.05764       36.83794       36.58718       36.31246       36.05684       35.80311       35.57238       35.34510    
   35.12564       35.04930       34.96684       34.86260       34.73677       34.56794       34.68612       34.75869       34.80976       34.83553    
   36.99300       36.93102       36.80513       36.62968       36.39182       36.15479       35.91099       35.68817       35.46353       35.21381    
   34.83670       34.93569       34.90494       34.82153       34.70786       34.54790       34.66613       34.73831       34.78662       34.81268    
   36.77795       36.71178       36.58514       36.41697       36.19367       35.96653       35.73385       35.54323       35.36657       35.17863    
   34.98884       34.93169       34.86886       34.78310       34.67562       34.52444       34.64090       34.71267       34.76075       34.78600    
   36.57956       36.50175       36.38367       36.21194       35.98752       35.74812       35.48937       35.37252       35.25637       35.12314    
   34.99435       34.90743       34.82803       34.73979       34.63800       34.49699       34.61100       34.68203       34.73012       34.75581    
   36.39600       36.31820       36.18972       36.01350       35.80268       35.52117       35.08759       35.18842       35.13417       35.03893    
   34.93771       34.84914       34.76631       34.68266       34.58997       34.46468       34.57493       34.64643       34.69475       34.72027    
   36.25286       36.16978       36.03728       35.87311       35.65221       35.44157       35.20411       35.11414       35.02921       34.93572    
   34.84221       34.75760       34.67955       34.60604       34.52990       34.42518       34.53398       34.60543       34.65471       34.68024    
   36.17081       36.04066       35.89279       35.69155       35.51811       35.32841       35.14410       35.01160       34.91057       34.80958    
   34.71471       34.63011       34.55908       34.50354       34.45274       34.37810       34.48540       34.55949       34.61011       34.63812    
  -999.9900       35.90463       35.73787       35.53455       35.35712       35.17630       35.00745       34.87202       34.75538       34.64966    
   34.55107       34.46355       34.39206       34.36852       34.35570       34.32166       34.42996       34.50801       34.56224       34.59267    
  -999.9900      -999.9900       35.56330       35.34909       35.15476       34.97851       34.81498       34.68706       34.56829       34.45504    
   34.35249       34.24910       34.15293       34.19413       34.23855       34.25694       34.36774       34.45018       34.51122       34.54910    
  -999.9900      -999.9900      -999.9900       35.14732       34.90260       34.73111       34.59071       34.46358       34.33847       34.23349    
   34.12971       33.99575       33.75060       33.98838       34.10972       34.18601       34.29762       34.38538       34.45293       34.51594    
  -999.9900      -999.9900      -999.9900      -999.9900       34.57390       34.43424       34.29758       34.17041       34.06873       33.98272    
   33.90360       33.82983       33.77616       33.87508       33.99279       34.11198       34.22020       34.30978       34.36960      -999.9900    
  -999.9900      -999.9900      -999.9900      -999.9900       34.35934       34.09631       33.94988       33.82898       33.75453       33.69426    
   33.64426       33.61447       33.62391       33.71074       33.84704       34.02598       34.13448       34.23598       34.31728      -999.9900    
  -999.9900      -999.9900      -999.9900      -999.9900      -999.9900       33.57681       33.50724       33.44593       33.40370       33.36346    
   33.33810       33.33397       33.36499       33.45819       33.63553       33.92045       34.03697       34.15077      -999.9900      -999.9900    
  -999.9900      -999.9900      -999.9900      -999.9900      -999.9900       33.07143       33.05855       33.02934       33.00418       32.98454    
   32.97380       32.97998       33.01069       33.09264       33.29174       33.80747       33.92665      -999.9900      -999.9900      -999.9900    
  -999.9900      -999.9900      -999.9900      -999.9900      -999.9900       32.52221       32.52128       32.52212       32.52125       32.52111    
   32.52133       32.52155       32.52309       32.52704       32.53410      -999.9900      -999.9900      -999.9900      -999.9900      -999.9900    
    INTERNAL  FACTOR    1.000000      IPRN  1
   39.42851       39.36053       39.21686       39.00139       38.76796       38.50306       38.17786       37.89872       37.56259       37.22223    
   36.89541       36.57198       36.23857       35.87502       35.49771       35.10670       35.20208       35.27232       35.31750       35.34235    
   39.44313       39.36700       39.22453       39.00288       38.77754       38.50801       38.18301       37.88337       37.55488       37.19690    
   36.87136       36.55248       36.22022       35.85813       35.49275       35.10160       35.19283       35.26438       35.30993       35.33381    
   39.46669       39.39503       39.24219       39.01588       38.79163       38.51263       38.17165       37.86940       37.51863       37.17043    
   36.82870       36.51323       36.18036       35.83212       35.47891       35.08659       35.17755       35.24694       35.29263       35.31676    
   39.50610       39.43409       39.28168       39.04752       38.80529       38.52215       38.16166       37.83394       37.48998       37.09559    
   36.75896       36.44945       36.12693       35.79570       35.44385       35.07549       35.15944       35.22245       35.26719       35.28979    
   39.56211       39.48248       39.32512       39.09768       38.83786       38.51590       38.15063       37.81987       37.40201       37.01546    
   36.68552       36.38004       36.06704       35.74491       35.40277       35.05224       35.12310       35.18740       35.22979       35.25262    
   39.62172       39.55474       39.39236       39.15500       38.87437       38.53386       38.14831       37.72932       37.33914       36.92757    
   36.57608       36.29060       35.99095       35.68078       35.35398       35.01392       35.07977       35.13691       35.18350       35.20793    
   39.69603       39.62712       39.48767       39.23557       38.92996       38.52495       38.12030       37.62538       37.20457       36.78391    
   36.45812       36.18513       35.89961       35.60294       35.28936       34.96400       35.02242       35.07835       35.12490       35.15255    
   39.81354       39.74307       39.62090       39.39125       38.98489       38.53217       38.05117       37.46163       36.99840       36.60992    
   36.31875       36.06322       35.79474       35.50517       35.20909       34.90060       34.93627       35.00367       35.05898       35.09377    
   39.92502       39.87469       39.80187       39.73490      -999.9900      -999.9900      -999.9900       37.06318       36.67419       36.40261    
   36.16782       35.92636       35.66954       35.39920       35.11718       34.81464       34.80005       34.90472       34.99041       35.03426    
   40.03493       39.99511       39.96414       39.92802      -999.9900      -999.9900      -999.9900      -999.9900       36.34599       36.19200    
   35.99748       35.78278       35.53703       35.26941       35.01547       34.71248       34.51160       34.80404       34.93644       34.98987    
   40.10575       40.08350       40.06224       40.05040      -999.9900      -999.9900      -999.9900      -999.9900       36.10936       36.00248    
   35.84610       35.64722       35.39248       35.10715       34.92584       34.71548       34.72071       34.83861       34.92841       34.97361    
   40.13223       40.12310       40.11264       40.10532      -999.9900      -999.9900      -999.9900      -999.9900       35.93861       35.85724    
   35.71981       35.53302       35.25204       34.80729       34.83882       34.71375       34.78867       34.87161       34.93687       34.97218    
   40.12552       40.11833       40.11126       40.10530      -999.9900      -999.9900      -999.9900      -999.9900       35.81764       35.75073    
   35.62913       35.46823       35.25568       35.01312       34.88024       34.73027       34.81816       34.89205       34.94757       34.97651    
   40.07855       40.07286       40.06190       40.05583      -999.9900      -999.9900      -999.9900      -999.9900       35.73314       35.67258    
   35.56749       35.43301       35.26255       35.07810       34.91311       34.74224       34.83273       34.90398       34.95415       34.97997    
   39.98608       39.98335       39.97268       39.96738      -999.9900      -999.9900      -999.9900      -999.9900       35.66890       35.61543    
   35.52124       35.40545       35.25803       35.09420       34.92395       34.74543       34.83766       34.90730       34.95501       34.98024    
   39.86268       39.85609       39.84507       39.84267      -999.9900      -999.9900      -999.9900      -999.9900       35.62143       35.56902    
   35.48657       35.37897       35.24343       35.08854       34.92001       34.73904       34.83211       34.90286       34.95115       34.97603    
   39.68783       39.67167       39.67335       39.67916      -999.9900      -999.9900      -999.9900      -999.9900       35.58601       35.53913    
   35.45497       35.35123       35.22052       35.06896       34.90269       34.72580       34.81767       34.89189       34.94143       34.96664    
   39.49559       39.48228       39.46958       39.47462      -999.9900      -999.9900      -999.9900      -999.9900       35.56530       35.51403    
   35.42840       35.32349       35.19018       35.03734       34.87199       34.70297       34.79639       34.87435       34.92645       34.95307    