# STO6 input file, prepared by MF5to6 on 6/30/2020 at 16:37:44.

BEGIN Options
END Options

BEGIN GRIDDATA
  ICONVERT LAYERED
    CONSTANT  1
    CONSTANT  0
    CONSTANT  0
  SS LAYERED
    CONSTANT   0.10000000E-05
    CONSTANT   0.10000000E-05
    CONSTANT   0.10000000E-05
  SY LAYERED
    CONSTANT   0.10000000E-01
    CONSTANT    0.0000000    
    CONSTANT    0.0000000    
END GRIDDATA

BEGIN Period 1
    STEADY-STATE
END Period

BEGIN Period 2
    TRANSIENT
END Period
