# DIS6 input file, prepared by MF5to6 on 6/30/2020 at 16:37:44.

BEGIN Options
  LENGTH_UNITS  METERS
END Options

BEGIN Dimensions
  NLAY  3
  NROW  40
  NCOL  20
END Dimensions

BEGIN GRIDDATA
  DELR
    CONSTANT    250.000000        DELR
  DELC
    CONSTANT    250.000000        DELC
  TOP LAYERED
    INTERNAL  FACTOR    1.000000      IPRN  3
   41.40240       41.33081       41.17999       40.95432       40.70931       40.43085       40.09084       39.79636       39.44411       39.08687    
   38.74368       38.40399       38.05364       37.67211       37.27559       36.81372       36.96497       37.03937       37.08693       37.11279    
   41.41753       41.33787       41.18803       40.95626       40.71925       40.43606       40.09564       39.78070       39.43545       39.06076    
   38.71861       38.38353       38.03437       37.65467       37.27021       36.80560       36.95537       37.03091       37.07886       37.10387    
   41.44245       41.36702       41.20671       40.97007       40.73389       40.44087       40.08412       39.76557       39.39819       39.03209    
   38.67385       38.34215       37.99277       37.62735       37.25536       36.79268       36.93945       37.01274       37.06073       37.08591    
   41.48380       41.40802       41.24792       41.00307       40.74854       40.45048       40.07338       39.72918       39.36676       38.95456    
   38.60112       38.27567       37.93710       37.58903       37.21910       36.77654       36.92007       36.98705       37.03389       37.05762    
   41.54239       41.45901       41.29391       41.05542       40.78231       40.44468       40.06211       39.71255       39.27607       38.87059    
   38.52362       38.20268       37.87408       37.53572       37.17611       36.75341       36.88242       36.95008       36.99477       37.01869    
   41.60534       41.53455       41.36453       41.11573       40.82088       40.46301       40.05827       39.61914       39.20841       38.77740    
   38.40944       38.10872       37.79416       37.46841       37.12472       36.71585       36.83689       36.89748       36.94604       36.97164    
   41.68361       41.61142       41.46446       41.20088       40.87869       40.45464       40.02824       39.50999       39.06732       38.62727    
   38.28530       37.99799       37.69825       37.38658       37.05692       36.66760       36.77657       36.83593       36.88470       36.91358    
   41.80635       41.73301       41.60455       41.36411       40.93629       40.46154       39.95647       39.33681       38.85104       38.44459    
   38.13887       37.87000       37.58790       37.28421       36.97276       36.60574       36.68644       36.75731       36.81558       36.85176    
   41.92367       41.87130       41.79509       41.72395      -1049.990      -1049.990      -1049.990       38.91967       38.51255       38.22691    
   37.97980       37.72636       37.45673       37.17269       36.87622       36.52253       36.54354       36.65379       36.74355       36.78944    
   42.03880       41.99784       41.96479       41.92723      -1049.990      -1049.990      -1049.990      -1049.990       38.16611       38.00510    
   37.80128       37.57563       37.31744       37.03664       36.76944       36.42353       36.25089       36.54821       36.68683       36.74303    
   42.11337       42.09034       42.06820       42.05547      -1049.990      -1049.990      -1049.990      -1049.990       37.91784       37.80631    
   37.64214       37.43312       37.16574       36.86620       36.67557       36.42511       36.46034       36.58425       36.67849       36.72586    
   42.14170       42.13201       42.12094       42.11327      -1049.990      -1049.990      -1049.990      -1049.990       37.73868       37.65369    
   37.50962       37.31304       37.01848       36.56250       36.58429       36.42244       36.53146       36.61886       36.68739       36.72439    
   42.13451       42.12715       42.11955       42.11339      -1049.990      -1049.990      -1049.990      -1049.990       37.61175       37.54174    
   37.41450       37.24542       37.02221       36.76757       36.62775       36.43650       36.56241       36.64036       36.69851       36.72892    
   42.08510       42.07922       42.06797       42.06170      -1049.990      -1049.990      -1049.990      -1049.990       37.52288       37.45971    
   37.34975       37.20838       37.02946       36.83570       36.66217       36.44673       36.57764       36.65281       36.70547       36.73260    
   41.98830       41.98527       41.97438       41.96894      -1049.990      -1049.990      -1049.990      -1049.990       37.45547       37.39957    
   37.30126       37.17941       37.02468       36.85263       36.67363       36.44870       36.58272       36.65633       36.70647       36.73284    
   41.85841       41.85143       41.84037       41.83794      -1049.990      -1049.990      -1049.990      -1049.990       37.40554       37.35120    
   37.26471       37.15162       37.00932       36.84669       36.66943       36.44130       36.57692       36.65166       36.70233       36.72839    
   41.67511       41.65886       41.66023       41.66608      -1049.990      -1049.990      -1049.990      -1049.990       37.36855       37.31945    
   37.23160       37.12254       36.98528       36.82616       36.65132       36.42750       36.56192       36.64008       36.69212       36.71858    
   41.47307       41.45947       41.44657       41.45140      -1049.990      -1049.990      -1049.990      -1049.990       37.34654       37.29317    
   37.20372       37.09338       36.95347       36.79295       36.61905       36.40467       36.53970       36.62173       36.67646       36.70440    
   41.23102       41.21955       41.20021       41.20232      -1049.990      -1049.990      -1049.990      -1049.990       37.33418       37.27693    
   37.18184       37.06367       36.91560       36.74312       36.56112       36.36996       36.51072       36.59912       36.65761       36.68833    
   40.95415       40.93248       40.90967       40.90255      -1049.990      -1049.990      -1049.990      -1049.990       37.34035       37.27197    
   37.16696       37.03756       36.87227       36.67152       36.45059       36.31789       36.47532       36.57439       36.63901       36.67050    
   40.64090       40.62161       40.59554       40.55920      -1049.990      -1049.990      -1049.990      -1049.990       37.37230       37.28254    
   37.16141       37.01743       36.83480       36.58897       36.19255       36.25446       36.44421       36.55286       36.62151       36.65398    
   40.33250       40.28476       40.21049       40.15425      -1049.990      -1049.990       37.74742       37.64158       37.44842       37.30881    
   37.15763       37.00913       36.83473       36.63124       36.41222       36.28767       36.44492       36.54218       36.60690       36.63943    
   39.98055       39.92854       39.83134       39.66831       39.32879      -1049.990       37.81273       37.67459       37.48008       37.31354    
   37.14478       36.99532       36.83361       36.66259       36.48672       36.30814       36.44897       36.53585       36.59534       36.62613    
   39.68135       39.60519       39.48785       39.29340       38.95347       38.41831       37.97786       37.70161       37.49183       37.28688    
   37.10855       36.96172       36.81629       36.66399       36.50589       36.31206       36.44689       36.52736       36.58406       36.61283    
   39.38324       39.30471       39.17320       38.99276       38.66334       38.27208       37.95735       37.68290       37.44674       37.21626    
   37.03158       36.89914       36.77538       36.64332       36.49712       36.30368       36.43824       36.51514       36.56965       36.59711    
   39.10700       39.03420       38.91130       38.68110       38.41767       38.12916       37.86061       37.59433       37.35204       37.11337    
   36.88301       36.80276       36.71619       36.60676       36.47456       36.28783       36.42137       36.49766       36.55125       36.57830    
   38.84366       38.77853       38.64642       38.46204       38.21249       37.96350       37.70759       37.47356       37.23775       36.97550    
   36.58247       36.68353       36.65120       36.56363       36.44421       36.26700       36.40038       36.47625       36.52697       36.55432    
   38.61777       38.54830       38.41541       38.23876       38.00440       37.76583       37.52155       37.32144       37.13591       36.93858    
   36.73933       36.67929       36.61332       36.52329       36.41037       36.24270       36.37390       36.44932       36.49981       36.52631    
   38.40943       38.32788       38.20380       38.02347       37.78801       37.53653       37.26489       37.14219       37.02019       36.88031    
   36.74509       36.65382       36.57045       36.47782       36.37086       36.21430       36.34251       36.41716       36.46765       36.49462    
   38.21676       38.13514       38.00028       37.81533       37.59379       37.29831       36.84633       36.94880       36.89189       36.79188    
   36.68562       36.59262       36.50566       36.41782       36.32046       36.18094       36.30465       36.37978       36.43051       36.45730    
   38.06652       37.97926       37.84015       37.66755       37.43599       37.21455       36.96532       36.87086       36.78169       36.68354    
   36.58536       36.49651       36.41456       36.33738       36.25739       36.14024       36.26166       36.33675       36.38847       36.41528    
   37.98029       37.84370       37.68832       37.47738       37.29498       37.09581       36.90232       36.76325       36.65710       36.55111    
   36.45151       36.36269       36.28809       36.22977       36.17637       36.09178       36.21067       36.28850       36.34165       36.37105    
  -1049.990       37.70085       37.52567       37.31236       37.12592       36.93610       36.75883       36.61667       36.49423       36.38322    
   36.27972       36.18781       36.11276       36.08802       36.07450       36.03376       36.15248       36.23445       36.29139       36.32333    
  -1049.990      -1049.990       37.34243       37.11764       36.91348       36.72842       36.55691       36.42249       36.29778       36.17893    
   36.07124       35.96267       35.86173       35.90494       35.95152       35.96730       36.08716       36.17374       36.23781       36.27760    
  -1049.990      -1049.990      -1049.990       36.90564       36.64886       36.46882       36.32129       36.18779       36.05655       35.94630    
   35.83733       35.69673       35.44105       35.68896       35.81629       35.89449       36.01356       36.10570       36.17663       36.24277    
  -1049.990      -1049.990      -1049.990      -1049.990       36.30376       36.15710       36.01361       35.88013       35.77333       35.68301    
   35.59993       35.52245       35.46609       35.56995       35.69355       35.81852       35.93229       36.02633       36.08914      -1049.990    
  -1049.990      -1049.990      -1049.990      -1049.990       36.07837       35.80235       35.64856       35.52173       35.44349       35.38018    
   35.32767       35.29636       35.30625       35.39742       35.54056       35.73032       35.84232       35.94884       36.03420      -1049.990    
  -1049.990      -1049.990      -1049.990      -1049.990      -1049.990       35.25706       35.18401       35.11956       35.07514       35.03290    
   35.00625       35.00189       35.03445       35.13234       35.31859       35.62220       35.73995       35.85939      -1049.990      -1049.990    
  -1049.990      -1049.990      -1049.990      -1049.990      -1049.990       34.72644       34.71282       34.68212       34.65570       34.63506    
   34.62378       34.63025       34.66250       34.74858       34.95787       35.50645       35.62413      -1049.990      -1049.990      -1049.990    
  -1049.990      -1049.990      -1049.990      -1049.990      -1049.990       34.13233       34.13203       34.13229       34.13201       34.13195    
   34.13202       34.13209       34.13258       34.13383       34.13611       34.13611      -1049.990      -1049.990      -1049.990      -1049.990    
  BOTM LAYERED
    CONSTANT    32.50000    
    CONSTANT    30.00000    
    INTERNAL  FACTOR    1.000000      IPRN  3
   8.880653       8.655858       8.370840       8.024581       7.618158       7.154595       6.639295       6.083348       5.514254       4.995374    
   4.591753       4.455214       4.529912       4.747016       5.015448       5.274121       5.463481       5.552007       5.552865       5.501304    
   9.229216       9.002528       8.705879       8.337524       7.898175       7.389737       6.813206       6.167596       5.459219       4.749111    
   4.206521       4.072788       4.249365       4.581543       4.963994       5.327274       5.578060       5.654257       5.605575       5.508199    
   9.617351       9.394465       9.090737       8.704295       8.237308       7.694000       7.075917       6.372429       5.545443       4.556836    
   3.699775       3.643690       3.987014       4.430248       4.914306       5.404208       5.754386       5.760067       5.618171       5.467378    
   10.04494       9.832413       9.525837       9.123498       8.631151       8.060275       7.423532       6.725085       5.927050       4.796462    
   3.000000       3.457652       3.873329       4.316804       4.812553       5.372484       6.000000       5.728824       5.512781       5.341317    
   10.51025       10.31592       10.00993       9.589983       9.066798       8.462434       7.806503       7.134524       6.495627       6.000000    
   4.401433       3.900095       3.970248       4.233081       4.602432       5.026499       5.350330       5.358307       5.235801       5.112245    
   11.00943       10.84383       10.54161       10.09743       9.527844       8.867122       8.158020       7.443844       6.750479       5.971917    
   5.002276       4.340907       4.101823       4.125647       4.301820       4.546620       4.756253       4.847050       4.843649       4.803804    
   11.53479       11.41438       11.12102       10.64084       9.999459       9.249130       8.445228       7.629625       6.815180       5.977657    
   5.155761       4.501183       4.109450       3.944541       3.942258       4.047209       4.202795       4.338210       4.421251       4.461564    
   12.07016       12.02346       11.75074       11.21578       10.46558       9.588894       8.660912       7.728050       6.812322       5.927481    
   5.119627       4.449983       3.973996       3.683850       3.540592       3.533952       3.686502       3.873576       4.022338       4.126453    
   12.57851       12.65685       12.43579       11.80985       10.89382       9.855481       8.790001       7.742548       6.737502       5.796847    
   4.959060       4.256266       3.729529       3.378660       3.157331       3.000000       3.257537       3.489783       3.680247       3.826969    
   12.97375       13.25373       13.18295       12.36506       11.20424       9.992830       8.801913       7.656908       6.575624       5.579108    
   4.699670       3.958832       3.403523       3.066597       2.886578       2.851084       2.998326       3.211495       3.411588       3.578622    
   13.09740       13.53149       14.00000       12.60185       11.24452       9.930768       8.665455       7.457012       6.319788       5.276602    
   4.361952       3.596997       3.000000       2.764753       2.666245       2.693223       2.828739       3.019704       3.213825       3.385103    
   12.84326       13.09482       12.98896       12.12794       10.91446       9.639698       8.374500       7.145944       5.976647       4.897647    
   3.958546       3.210609       2.715571       2.494678       2.459845       2.541139       2.697106       2.887132       3.075874       3.242852    
   12.32426       12.34776       12.05916       11.35021       10.33279       9.172083       7.962283       6.751154       5.571343       4.460498    
   3.485844       2.751161       2.345106       2.218466       2.265056       2.408766       2.600950       2.803670       2.989476       3.145978    
   11.70499       11.58086       11.21309       10.56165       9.669253       8.620397       7.487595       6.319769       5.151100       4.013655    
   2.965020       2.183820       1.918803       1.947247       2.097086       2.310811       2.548153       2.770154       2.950541       3.087400    
   11.07640       10.86116       10.45210       9.831035       9.018511       8.061027       7.008630       5.902971       4.776109       3.653218    
   2.556314       1.500000       1.597475       1.759737       1.985025       2.257815       2.544675       2.790597       2.954484       3.055383    
   10.47872       10.20679       9.776064       9.177211       8.422208       7.539797       6.565881       5.536394       4.485591       3.450409    
   2.492837       1.796272       1.608577       1.709284       1.934494       2.236800       2.578553       2.867510       2.983924       3.025036    
   9.929399       9.623094       9.183368       8.605170       7.896809       7.078524       6.178602       5.230295       4.272057       3.353469    
   2.551721       1.980239       1.721647       1.725792       1.903842       2.197109       2.570060       3.000000       2.960462       2.951391    
   9.435618       9.110544       8.671102       8.114409       7.446914       6.684374       5.850751       4.977465       4.104331       3.282610    
   2.578593       2.061622       1.776328       1.716723       1.841642       2.091720       2.404146       2.673237       2.774143       2.802773    
   8.999381       8.667267       8.235482       7.702034       7.071887       6.357673       5.579971       4.767713       3.958977       3.201504    
   2.550595       2.056425       1.749261       1.642376       1.731731       1.937294       2.181475       2.393921       2.529055       2.605826    
   8.619731       8.289978       7.872217       7.364360       6.769545       6.097251       5.364396       4.596431       3.828190       3.103830    
   2.474427       1.987763       1.667439       1.500000       1.604421       1.778515       1.976974       2.158465       2.298950       2.400754    
   8.239072       7.934435       7.549798       7.081962       6.531373       5.903514       5.210762       4.466738       3.717046       2.998013    
   2.362098       1.874005       1.576010       1.461676       1.510391       1.645414       1.807508       1.963620       2.097478       2.207592    
   7.960686       7.673317       7.314744       6.880354       6.367294       5.775926       5.112595       4.393341       3.646394       2.910699    
   2.235523       1.716891       1.470136       1.403988       1.439919       1.544424       1.675367       1.805916       1.925569       1.996326    
   7.765446       7.489673       7.153060       6.749819       6.273527       5.717988       5.080887       4.371080       3.616332       2.861680    
   2.149473       1.500000       1.397171       1.362647       1.392225       1.471115       1.575184       1.678000       1.779513       1.842727    
   7.567842       7.321000       7.023290       6.668334       6.246409       5.743146       5.142748       4.440753       3.665630       2.894243    
   2.215725       1.711633       1.467692       1.377872       1.367209       1.412806       1.500000       1.560364       1.641585       1.736101    
   7.395507       7.180329       6.925708       6.626609       6.272859       5.842892       5.300461       4.612710       3.789350       2.961889    
   2.332807       1.881688       1.588136       1.424889       1.353395       1.346758       1.381721       1.434894       1.506213       1.595946    
   7.237629       7.053434       6.841774       6.601206       6.326369       6.000000       5.558361       4.923824       4.040233       3.000000    
   2.486527       2.037796       1.696775       1.467670       1.333674       1.273257       1.270195       1.305869       1.370752       1.459188    
   7.083560       6.925508       6.750214       6.560443       6.358743       6.141788       5.877154       5.397424       4.477456       3.481448    
   2.735250       2.186470       1.774700       1.482429       1.292860       1.187279       1.153965       1.174159       1.234784       1.325099    
   6.924587       6.784208       6.632428       6.473827       6.315465       6.170157       6.058088       6.000000       4.792607       3.745346    
   2.910009       2.272186       1.794428       1.449769       1.217111       1.078015       1.023122       1.035149       1.097346       1.194097    
   6.755543       6.622770       6.478968       6.326584       6.167666       6.000000       5.822204       5.444768       4.642811       3.721762    
   2.903903       2.239974       1.729119       1.355025       1.097310      0.9379285      0.8658702      0.8860664      0.9593764       1.068486    
   6.575462       6.441244       6.292233       6.126760       5.939573       5.717134       5.419497       4.954941       4.275755       3.487182    
   2.728304       2.079377       1.569412       1.194539      0.9345587      0.7683338      0.6925275      0.7306762      0.8272483      0.9536098    
   6.386959       6.245137       6.083128       5.895628       5.672368       5.393832       5.025546       4.525245       3.883342       3.155297    
   2.434849       1.808258       1.322905      0.9775958      0.7443097      0.5930039      0.5000000      0.5928861      0.7150875      0.8573046    
   6.194767       6.042571       5.865291       5.655604       5.401606       5.084775       4.679646       4.160970       3.522605       2.799004    
   2.071065       1.448413       1.006071      0.7238764      0.5495889      0.4513874      0.4271310      0.5084867      0.6354390      0.7858404    
   6.004161       5.841631       5.650724       5.423676       5.149379       4.812767       4.395021       3.874565       3.231244       2.474403    
   1.680339       1.012365      0.6480181      0.4668648      0.3708515      0.3353446      0.3566834      0.4566225      0.5862117      0.7404403    
   5.819814       5.648779       5.447858       5.209795       4.925242       4.583064       4.171124       3.674018       3.047847       2.242764    
   1.361496      0.5000000      0.3482283      0.2640930      0.2331621      0.2471538      0.3028056      0.4254691      0.5619289      0.7196434    
   5.645210       5.468343       5.261561       5.018399       4.730999       4.390700       3.989695       3.524297       3.000000       2.110847    
   1.238038      0.5456903      0.2473949      0.1628767      0.1575158      0.1991401      0.2768734      0.4182570      0.5617690      0.7225754    
   5.482526       5.302677       5.094000       4.850792       4.565944       4.230721       3.834261       3.360162       2.763343       2.000620    
   1.199560      0.5000000      0.2491710      0.1499467      0.1447198      0.1962069      0.2849179      0.3999878      0.5870140      0.7493044    
   5.332755       5.152529       4.945422       4.706585       4.429585       4.105144       3.718373       3.244420       2.652106       1.947457    
   1.224099      0.6381361      0.3155614      0.1921710      0.1816382      0.2355034      0.3281080      0.4457776      0.6387497      0.8000505    
   5.195942       5.017400       4.814518       4.583603       4.319700       4.015169       3.656163       3.215621       2.652701       1.964877    
   1.256363      0.6912752      0.3738384      0.2586065      0.2554981      0.3124462      0.4052917      0.5213074      0.7171995      0.8746184    
   5.071500       4.895954       4.698772       4.477568       4.229521       3.950872       3.635142       3.264467       2.764387       2.042857    
   1.264052      0.6513996      0.3978117      0.3465867      0.3656227      0.4254861      0.5150653      0.6254457      0.8216785      0.9721512    
   4.958582       4.786577       4.595283       4.383274       4.149297       3.892535       3.613168       3.313534       3.000000       2.146311    
   1.307190      0.5000000      0.4764890      0.5000000      0.5202485      0.5748394      0.6557167      0.7561472      0.9505304       1.091015    
  IDOMAIN LAYERED
    INTERNAL  FACTOR  1  IPRN  5    Idomain layer 1
    1    1    1    1    1    1    1    1    1    1    1    1    1    1    1    1    1    1    1    1
    1    1    1    1    1    1    1    1    1    1    1    1    1    1    1    1    1    1    1    1
    1    1    1    1    1    1    1    1    1    1    1    1    1    1    1    1    1    1    1    1
    1    1    1    1    1    1    1    1    1    1    1    1    1    1    1    1    1    1    1    1
    1    1    1    1    1    1    1    1    1    1    1    1    1    1    1    1    1    1    1    1
    1    1    1    1    1    1    1    1    1    1    1    1    1    1    1    1    1    1    1    1
    1    1    1    1    1    1    1    1    1    1    1    1    1    1    1    1    1    1    1    1
    1    1    1    1    1    1    1    1    1    1    1    1    1    1    1    1    1    1    1    1
    1    1    1    1    0    0    0    1    1    1    1    1    1    1    1    1    1    1    1    1
    1    1    1    1    0    0    0    0    1    1    1    1    1    1    1    1    1    1    1    1
    1    1    1    1    0    0    0    0    1    1    1    1    1    1    1    1    1    1    1    1
    1    1    1    1    0    0    0    0    1    1    1    1    1    1    1    1    1    1    1    1
    1    1    1    1    0    0    0    0    1    1    1    1    1    1    1    1    1    1    1    1
    1    1    1    1    0    0    0    0    1    1    1    1    1    1    1    1    1    1    1    1
    1    1    1    1    0    0    0    0    1    1    1    1    1    1    1    1    1    1    1    1
    1    1    1    1    0    0    0    0    1    1    1    1    1    1    1    1    1    1    1    1
    1    1    1    1    0    0    0    0    1    1    1    1    1    1    1    1    1    1    1    1
    1    1    1    1    0    0    0    0    1    1    1    1    1    1    1    1    1    1    1    1
    1    1    1    1    0    0    0    0    1    1    1    1    1    1    1    1    1    1    1    1
    1    1    1    1    0    0    0    0    1    1    1    1    1    1    1    1    1    1    1    1
    1    1    1    1    0    0    0    0    1    1    1    1    1    1    1    1    1    1    1    1
    1    1    1    1    0    0    1    1    1    1    1    1    1    1    1    1    1    1    1    1
    1    1    1    1    1    0    1    1    1    1    1    1    1    1    1    1    1    1    1    1
    1    1    1    1    1    1    1    1    1    1    1    1    1    1    1    1    1    1    1    1
    1    1    1    1    1    1    1    1    1    1    1    1    1    1    1    1    1    1    1    1
    1    1    1    1    1    1    1    1    1    1    1    1    1    1    1    1    1    1    1    1
    1    1    1    1    1    1    1    1    1    1    1    1    1    1    1    1    1    1    1    1
    1    1    1    1    1    1    1    1    1    1    1    1    1    1    1    1    1    1    1    1
    1    1    1    1    1    1    1    1    1    1    1    1    1    1    1    1    1    1    1    1
    1    1    1    1    1    1    1    1    1    1    1    1    1    1    1    1    1    1    1    1
    1    1    1    1    1    1    1    1    1    1    1    1    1    1    1    1    1    1    1    1
    1    1    1    1    1    1    1    1    1    1    1    1    1    1    1    1    1    1    1    1
    0    1    1    1    1    1    1    1    1    1    1    1    1    1    1    1    1    1    1    1
    0    0    1    1    1    1    1    1    1    1    1    1    1    1    1    1    1    1    1    1
    0    0    0    1    1    1    1    1    1    1    1    1    1    1    1    1    1    1    1    1
    0    0    0    0    1    1    1    1    1    1    1    1    1    1    1    1    1    1    1    0
    0    0    0    0    1    1    1    1    1    1    1    1    1    1    1    1    1    1    1    0
    0    0    0    0    0    1    1    1    1    1    1    1    1    1    1    1    1    1    0    0
    0    0    0    0    0    1    1    1    1    1    1    1    1    1    1    1    1    0    0    0
    0    0    0    0    0    1    1    1    1    1    1    1    1    1    1    1    0    0    0    0
    INTERNAL  FACTOR  1  IPRN  5    Idomain layer 2
    1    1    1    1    1    1    1    1    1    1    1    1    1    1    1    1    1    1    1    1
    1    1    1    1    1    1    1    1    1    1    1    1    1    1    1    1    1    1    1    1
    1    1    1    1    1    1    1    1    1    1    1    1    1    1    1    1    1    1    1    1
    1    1    1    1    1    1    1    1    1    1    1    1    1    1    1    1    1    1    1    1
    1    1    1    1    1    1    1    1    1    1    1    1    1    1    1    1    1    1    1    1
    1    1    1    1    1    1    1    1    1    1    1    1    1    1    1    1    1    1    1    1
    1    1    1    1    1    1    1    1    1    1    1    1    1    1    1    1    1    1    1    1
    1    1    1    1    1    1    1    1    1    1    1    1    1    1    1    1    1    1    1    1
    1    1    1    1    0    0    0    1    1    1    1    1    1    1    1    1    1    1    1    1
    1    1    1    1    0    0    0    0    1    1    1    1    1    1    1    1    1    1    1    1
    1    1    1    1    0    0    0    0    1    1    1    1    1    1    1    1    1    1    1    1
    1    1    1    1    0    0    0    0    1    1    1    1    1    1    1    1    1    1    1    1