# GHB6 input file, prepared by MF5to6 on 6/30/2020 at 16:37:44.

BEGIN Options
  PRINT_INPUT
  PRINT_FLOWS
  SAVE_FLOWS
END Options

BEGIN Dimensions
  MAXBOUND  30
END Dimensions

BEGIN PERIOD 1
  1  40  6    33.500000        70.000000
  1  40  7    33.500000        70.000000
  1  40  8    33.500000        70.000000
  1  40  9    33.500000        70.000000
  1  40  10    33.500000        70.000000
  1  40  11    33.500000        70.000000
  1  40  12    33.500000        70.000000
  1  40  13    33.500000        70.000000
  1  40  14    33.500000        70.000000
  1  40  15    33.500000        70.000000
  2  40  6    33.500000        70.000000
  2  40  7    33.500000        70.000000
  2  40  8    33.500000        70.000000
  2  40  9    33.500000        70.000000
  2  40  10    33.500000        70.000000
  2  40  11    33.500000        70.000000
  2  40  12    33.500000        70.000000
  2  40  13    33.500000        70.000000
  2  40  14    33.500000        70.000000
  2  40  15    33.500000        70.000000
  3  40  6    33.500000        70.000000
  3  40  7    33.500000        70.000000
  3  40  8    33.500000        70.000000
  3  40  9    33.500000        70.000000
  3  40  10    33.500000        70.000000
  3  40  11    33.500000        70.000000
  3  40  12    33.500000        70.000000
  3  40  13    33.500000        70.000000
  3  40  14    33.500000        70.000000
  3  40  15    33.500000        70.000000
END PERIOD
