# Simulation name file for MODFLOW 6 prepared by MF5to6

BEGIN Options
END Options

BEGIN TIMING
  TDIS6  freyberg6.tdis
END TIMING

BEGIN MODELS
  GWF6  freyberg6.nam  freyberg6
END MODELS

BEGIN EXCHANGES
END EXCHANGES

BEGIN SOLUTIONGROUP 1
  MXITER  1
  IMS6  freyberg6.ims  freyberg6
END SOLUTIONGROUP
